@<TRIPOS>MOLECULE
OAM
196 216 1 0 1
SMALL
USER_CHARGES
@<TRIPOS>CRYSIN
   40.3244    40.3244    40.3244    90.0000    90.0000    90.0000  1  1
@<TRIPOS>ATOM
       1 C1          21.2992    24.7115    18.7149 ca            1 OAM        0.009882
       2 C2          19.3173    24.3583    20.6913 ca            1 OAM        0.035332
       3 C3          21.1819    25.5749    19.8204 ca            1 OAM       -0.255530
       4 C4          20.3651    23.6379    18.6998 ca            1 OAM        0.035332
       5 C5          19.3363    23.4397    19.6702 ca            1 OAM       -0.071425
       6 C6          20.1767    25.4466    20.7822 ca            1 OAM        0.009882
       7 O1          18.3790    24.1313    21.6758 os            1 OAM       -0.261615
       8 C7          20.1923    26.2637    22.0798 c3            1 OAM        0.054418
       9 C8          18.8896    23.3711    22.7958 c3            1 OAM        0.088961
      10 O2          19.1133    24.2950    23.8715 os            1 OAM       -0.261615
      11 C9          20.4232    24.6708    24.0158 ca            1 OAM        0.035332
      12 C10         21.0463    25.5947    23.1963 ca            1 OAM        0.009882
      13 C11         22.3910    25.8794    23.2745 ca            1 OAM       -0.255530
      14 C12         21.1460    23.9669    24.9415 ca            1 OAM       -0.071425
      15 C13         23.1259    25.1905    24.2543 ca            1 OAM        0.009882
      16 C14         22.4964    24.2626    25.0993 ca            1 OAM        0.035332
      17 O3          23.2152    23.4951    25.9925 os            1 OAM       -0.261615
      18 C15         24.5734    25.6224    24.5327 c3            1 OAM        0.054418
      19 C16         25.4701    24.6836    23.7827 ca            1 OAM        0.009882
      20 C17         25.9143    23.4551    24.2989 ca            1 OAM        0.035332
      21 C18         24.1215    22.4427    25.4606 c3            1 OAM        0.088961
      22 O4          25.4720    22.9615    25.4635 os            1 OAM       -0.261615
      23 O5          20.4160    22.7309    17.7345 os            1 OAM       -0.261615
      24 C19         22.3448    24.8272    17.6391 c3            1 OAM        0.054418
      25 C20         23.5567    23.9688    18.0581 ca            1 OAM        0.009882
      26 O6          22.6361    21.9954    17.0659 os            1 OAM       -0.261615
      27 C21         23.7044    22.6219    17.6892 ca            1 OAM        0.035332
      28 C22         26.6860    22.5618    23.5151 ca            1 OAM       -0.071425
      29 C23         26.9661    22.8379    22.1999 ca            1 OAM        0.035332
      30 C24         24.7935    21.8935    18.0406 ca            1 OAM       -0.071425
      31 C25         25.7260    22.3637    18.9426 ca            1 OAM        0.035332
      32 O7          27.4276    21.7563    21.4770 os            1 OAM       -0.261615
      33 O8          26.6708    21.4029    19.2762 os            1 OAM       -0.261615
      34 C26         26.5211    20.9855    20.6364 c3            1 OAM        0.088961
      35 C27         24.6464    24.5040    18.7589 ca            1 OAM       -0.255530
      36 C28         25.7528    23.7402    19.2294 ca            1 OAM        0.009882
      37 C29         25.8863    24.9790    22.4177 ca            1 OAM       -0.255530
      38 C30         26.8747    24.2977    20.0912 c3            1 OAM        0.054418
      39 C31         26.5861    24.0399    21.5868 ca            1 OAM        0.009882
      40 C32         21.4150    21.6879    17.8388 c3            1 OAM        0.088961
      41 C33         24.8590    27.1559    24.3239 c3            1 OAM       -0.038039
      42 C34         26.2801    27.5667    24.7188 c3            1 OAM        0.037236
      43 C35         26.4629    29.0789    25.0157 c             1 OAM        0.797491
      44 O9          25.7060    29.8957    24.6144 o             1 OAM       -0.838044
      45 C36         20.5168    27.8253    21.8859 c3            1 OAM       -0.038039
      46 C37         20.0124    28.7572    22.9813 c3            1 OAM        0.037236
      47 C38         18.5069    28.9715    22.9045 c             1 OAM        0.797491
      48 O10         18.0346    29.7673    22.1401 o             1 OAM       -0.838044
      49 C39         22.6540    26.2707    17.2337 c3            1 OAM       -0.038039
      50 C40         23.7476    26.4214    16.0458 c3            1 OAM        0.037236
      51 C41         23.1076    26.3010    14.7427 c             1 OAM        0.797491
      52 O11         22.4596    27.2022    14.3039 o             1 OAM       -0.838044
      53 C42         27.3149    25.7315    19.7403 c3            1 OAM       -0.038039
      54 C43         28.6379    26.1359    20.4331 c3            1 OAM        0.037236
      55 C44         29.1144    27.4053    19.6976 c             1 OAM        0.797491
      56 O12         28.3749    28.2193    19.1635 o             1 OAM       -0.838044
      57 C45         17.8574    22.3208    23.1967 ca            1 OAM        0.000871
      58 C46         16.0267    20.4047    24.1236 ca            1 OAM       -0.200215
      59 C47         17.8748    21.8891    24.5987 ca            1 OAM       -0.116374
      60 C48         17.0026    21.6619    22.3281 ca            1 OAM       -0.116374
      61 C49         16.0604    20.7245    22.8127 ca            1 OAM        0.137378
      62 C50         16.9826    20.9236    24.9737 ca            1 OAM        0.137378
      63 C51         20.8395    20.2843    17.6385 ca            1 OAM        0.000871
      64 C52         19.9142    17.6482    17.2845 ca            1 OAM       -0.200215
      65 C53         21.7140    19.2689    17.2894 ca            1 OAM       -0.116374
      66 C54         19.5192    19.9967    17.9515 ca            1 OAM       -0.116374
      67 C55         19.0446    18.6323    17.7452 ca            1 OAM        0.137378
      68 C56         21.2914    17.9378    17.1704 ca            1 OAM        0.137378
      69 C57         26.8392    19.4630    20.6731 ca            1 OAM        0.000871
      70 C58         27.3916    16.6896    20.8307 ca            1 OAM       -0.200215
      71 C59         27.3931    18.8900    21.8131 ca            1 OAM       -0.116374
      72 C60         26.4475    18.5932    19.6946 ca            1 OAM       -0.116374
      73 C61         26.7781    17.2620    19.7182 ca            1 OAM        0.137378
      74 C62         27.7514    17.4739    21.8526 ca            1 OAM        0.137378
      75 C63         23.9462    21.1647    26.2758 ca            1 OAM        0.000871
      76 C64         23.6848    18.6335    27.3823 ca            1 OAM       -0.200215
      77 C65         25.0268    20.2849    26.4029 ca            1 OAM       -0.116374
      78 C66         22.7109    20.7378    26.6630 ca            1 OAM       -0.116374
      79 C67         22.5820    19.4280    27.1771 ca            1 OAM        0.137378
      80 C68         24.9198    19.0271    26.9033 ca            1 OAM        0.137378
      81 O13         17.7657    18.2277    18.1191 os            1 OAM       -0.266065
      82 O14         26.4342    16.3733    18.7484 os            1 OAM       -0.266065
      83 O15         28.3120    16.9147    22.9663 os            1 OAM       -0.266065
      84 O16         15.2233    20.0999    21.9095 os            1 OAM       -0.266065
      85 O17         16.9332    20.4163    26.2277 os            1 OAM       -0.266065
      86 O18         25.9230    18.1143    27.0429 os            1 OAM       -0.266065
      87 O19         21.3718    18.9967    27.4825 os            1 OAM       -0.266065
      88 C69         25.6093    16.6842    17.6792 ca            1 OAM        0.040536
      89 C70         24.1450    17.3985    15.4753 ca            1 OAM       -0.180276
      90 C71         24.2222    16.6392    17.7901 ca            1 OAM        0.074419
      91 C72         26.2470    17.1128    16.5776 ca            1 OAM       -0.180276
      92 C73         25.5336    17.4499    15.4176 ca            1 OAM       -0.060015
      93 C74         23.4891    17.0149    16.6928 ca            1 OAM        0.040536
      94 O20         22.0916    16.9549    16.6495 os            1 OAM       -0.266065
      95 C75         15.5523    19.9523    20.5845 ca            1 OAM        0.040536
      96 C76         15.9200    19.7450    17.8292 ca            1 OAM       -0.180276
      97 C77         14.7097    20.6603    19.7123 ca            1 OAM       -0.180276
      98 C78         16.6015    19.2140    20.1051 ca            1 OAM        0.074419
      99 C79         16.7902    19.0782    18.6823 ca            1 OAM        0.040536
     100 C80         14.8257    20.5008    18.3219 ca            1 OAM       -0.060015
     101 C81         28.1768    17.4503    24.2173 ca            1 OAM        0.040536
     102 C82         28.1147    18.5345    26.8054 ca            1 OAM       -0.180276
     103 C83         29.3633    17.9063    24.8410 ca            1 OAM       -0.180276
     104 C84         26.9439    17.4636    24.8755 ca            1 OAM        0.074419
     105 C85         27.0070    18.0913    26.1564 ca            1 OAM        0.040536
     106 C86         29.3199    18.3814    26.1488 ca            1 OAM       -0.060015
     107 C87         30.5704    18.6701    26.9392 c             1 OAM        0.823986
     108 O21         31.6299    18.4920    26.4103 o             1 OAM       -0.812891
     109 C88         18.4724    20.9971    30.8441 c             1 OAM        0.823986
     110 O22         17.4168    21.5907    31.0818 o             1 OAM       -0.812891
     111 C89         13.9121    21.2011    17.3667 c             1 OAM        0.823986
     112 O23         13.8705    20.9697    16.2320 o             1 OAM       -0.812891
     113 O24         27.3519    29.3998    25.8199 o             1 OAM       -0.838044
     114 O25         30.2921    27.3641    19.3772 o             1 OAM       -0.838044
     115 O26         23.2219    25.2293    14.1333 o             1 OAM       -0.838044
     116 C90         26.1660    17.8299    14.0773 c             1 OAM        0.823986
     117 O27         25.4897    17.8824    13.0681 o             1 OAM       -0.812891
     118 O28         19.3095    20.8868    31.7633 o             1 OAM       -0.812891
     119 O29         30.5997    19.0177    28.1272 o             1 OAM       -0.812891
     120 O30         27.4089    17.8106    13.9717 o             1 OAM       -0.812891
     121 O31         13.0640    21.8528    17.9058 o             1 OAM       -0.812891
     122 O32         17.7963    28.4018    23.7394 o             1 OAM       -0.838044
     123 C91         18.0236    20.3773    27.0646 ca            1 OAM        0.040536
     124 C92         20.0195    20.0560    28.9832 ca            1 OAM       -0.180276
     125 C93         19.2371    19.6901    26.7667 ca            1 OAM        0.074419
     126 C94         17.8173    20.8374    28.3809 ca            1 OAM       -0.180276
     127 C95         18.7789    20.6713    29.3730 ca            1 OAM       -0.060015
     128 C96         20.2605    19.6692    27.7060 ca            1 OAM        0.040536
     129 C97         19.4359    19.0776    25.3572 c3            1 OAM       -0.198625
     130 C98         17.5639    18.4930    21.1000 c3            1 OAM       -0.198625
     131 C99         23.5038    16.0624    19.0438 c3            1 OAM       -0.198625
     132 C           25.6398    16.9668    24.2899 c3            1 OAM       -0.198625
     133 H1          21.9249    26.3524    19.9792 ha            1 OAM        0.173016
     134 H2          18.5586    22.6921    19.5365 ha            1 OAM        0.118932
     135 H3          19.1672    26.3127    22.4527 hc            1 OAM        0.128480
     136 H4          19.8659    22.9153    22.5744 h2            1 OAM        0.141640
     137 H5          22.9283    26.5824    22.6432 ha            1 OAM        0.173016
     138 H6          20.6948    23.1856    25.5477 ha            1 OAM        0.118932
     139 H7          24.7122    25.3934    25.5914 hc            1 OAM        0.128480
     140 H8          23.8961    22.1777    24.4171 h2            1 OAM        0.141640
     141 H9          21.9411    24.3486    16.7444 hc            1 OAM        0.128480
     142 H10         27.0170    21.6075    23.9169 ha            1 OAM        0.118932
     143 H11         24.8341    20.8411    17.7715 ha            1 OAM        0.118932
     144 H12         25.4918    21.0748    21.0141 h2            1 OAM        0.141640
     145 H13         24.5805    25.5557    19.0254 ha            1 OAM        0.173016
     146 H14         25.5997    25.9468    22.0141 ha            1 OAM        0.173016
     147 H15         27.7745    23.7364    19.8309 hc            1 OAM        0.128480
     148 H16         21.7115    21.7294    18.8973 h2            1 OAM        0.141640
     149 H17         24.7534    27.6040    23.3337 hc            1 OAM        0.022687
     150 H18         24.1146    27.6955    24.9131 hc            1 OAM        0.022687
     151 H19         26.5868    27.0157    25.6103 hc            1 OAM       -0.048813
     152 H20         26.9160    27.2464    23.8909 hc            1 OAM       -0.048813
     153 H21         19.8984    27.9805    20.9994 hc            1 OAM        0.022687
     154 H22         21.5397    28.0347    21.5661 hc            1 OAM        0.022687
     155 H23         20.1808    28.2906    23.9541 hc            1 OAM       -0.048813
     156 H24         20.4552    29.7533    22.9171 hc            1 OAM       -0.048813
     157 H25         21.7044    26.7156    16.9289 hc            1 OAM        0.022687
     158 H26         23.0217    26.8234    18.1008 hc            1 OAM        0.022687
     159 H27         24.2378    27.3956    16.1031 hc            1 OAM       -0.048813
     160 H28         24.5445    25.6782    16.1173 hc            1 OAM       -0.048813
     161 H29         27.4354    25.7519    18.6551 hc            1 OAM        0.022687
     162 H30         26.5392    26.4329    20.0544 hc            1 OAM        0.022687
     163 H31         28.4328    26.4230    21.4665 hc            1 OAM       -0.048813
     164 H32         29.4218    25.3758    20.4214 hc            1 OAM       -0.048813
     165 H33         15.3955    19.6009    24.4939 ha            1 OAM        0.115169
     166 H34         18.5199    22.2963    25.3731 ha            1 OAM        0.151107
     167 H35         16.9260    21.9718    21.2891 ha            1 OAM        0.151107
     168 H36         19.5433    16.6334    17.1656 ha            1 OAM        0.115169
     169 H37         22.7704    19.3608    17.0505 ha            1 OAM        0.151107
     170 H38         18.8230    20.7175    18.3726 ha            1 OAM        0.151107
     171 H39         27.6836    15.6485    20.7193 ha            1 OAM        0.115169
     172 H40         27.6297    19.5326    22.6572 ha            1 OAM        0.151107
     173 H41         26.1456    19.0612    18.7611 ha            1 OAM        0.151107
     174 H42         23.5643    17.6635    27.8578 ha            1 OAM        0.115169
     175 H43         25.9760    20.5947    25.9732 ha            1 OAM        0.151107
     176 H44         21.8173    21.3424    26.5310 ha            1 OAM        0.151107
     177 H45         23.4705    17.6443    14.6591 ha            1 OAM        0.163126
     178 H46         27.3334    17.1452    16.5649 ha            1 OAM        0.163126
     179 H47         16.0393    19.6576    16.7523 ha            1 OAM        0.163126
     180 H48         13.8420    21.2240    20.0452 ha            1 OAM        0.163126
     181 H49         28.0767    18.9987    27.7875 ha            1 OAM        0.163126
     182 H50         30.2353    17.8578    24.1937 ha            1 OAM        0.163126
     183 H51         20.7461    19.8211    29.7567 ha            1 OAM        0.163126
     184 H52         16.9135    21.3394    28.7165 ha            1 OAM        0.163126
     185 H53         18.5200    18.5723    25.0438 hc            1 OAM        0.065763
     186 H54         19.7985    19.8355    24.6597 hc            1 OAM        0.065763
     187 H55         20.1745    18.2738    25.3298 hc            1 OAM        0.065763
     188 H56         18.3600    19.1448    21.4659 hc            1 OAM        0.065763
     189 H57         17.0801    18.0827    21.9889 hc            1 OAM        0.065763
     190 H58         18.0891    17.6290    20.6876 hc            1 OAM        0.065763
     191 H59         24.1811    15.3288    19.4859 hc            1 OAM        0.065763
     192 H60         23.4871    16.8651    19.7841 hc            1 OAM        0.065763
     193 H61         22.5377    15.5815    18.8770 hc            1 OAM        0.065763
     194 H62         25.2462    17.8021    23.7069 hc            1 OAM        0.065763
     195 H63         25.8830    16.0941    23.6801 hc            1 OAM        0.065763
     196 H64         25.0245    16.6980    25.1511 hc            1 OAM        0.065763
@<TRIPOS>BOND
       1      126      127 1
       2      125      128 1
       3      125      129 1
       4      124      127 1
       5      124      128 1
       6      123      125 1
       7      123      126 1
       8      116      117 1
       9      116      120 1
      10      111      112 1
      11      111      121 1
      12      109      110 1
      13      109      118 1
      14      109      127 1
      15      107      108 1
      16      107      119 1
      17      106      107 1
      18      104      105 1
      19      104      132 1
      20      103      106 1
      21      102      105 1
      22      102      106 1
      23      101      103 1
      24      101      104 1
      25      100      111 1
      26       98       99 1
      27       98      130 1
      28       97      100 1
      29       96       99 1
      30       96      100 1
      31       95       97 1
      32       95       98 1
      33       93       94 1
      34       92      116 1
      35       91       92 1
      36       90       93 1
      37       90      131 1
      38       89       92 1
      39       89       93 1
      40       88       90 1
      41       88       91 1
      42       87      128 1
      43       86      105 1
      44       85      123 1
      45       84       95 1
      46       83      101 1
      47       82       88 1
      48       81       99 1
      49       80       86 1
      50       79       87 1
      51       78       79 1
      52       77       80 1
      53       76       79 1
      54       76       80 1
      55       75       77 1
      56       75       78 1
      57       74       83 1
      58       73       82 1
      59       72       73 1
      60       71       74 1
      61       70       73 1
      62       70       74 1
      63       69       71 1
      64       69       72 1
      65       68       94 1
      66       67       81 1
      67       66       67 1
      68       65       68 1
      69       64       67 1
      70       64       68 1
      71       63       65 1
      72       63       66 1
      73       62       85 1
      74       61       84 1
      75       60       61 1
      76       59       62 1
      77       58       61 1
      78       58       62 1
      79       57       59 1
      80       57       60 1
      81       55       56 1
      82       55      114 1
      83       54       55 1
      84       53       54 1
      85       51       52 1
      86       51      115 1
      87       50       51 1
      88       49       50 1
      89       47       48 1
      90       47      122 1
      91       46       47 1
      92       45       46 1
      93       43       44 1
      94       43      113 1
      95       42       43 1
      96       41       42 1
      97       40       63 1
      98       38       39 1
      99       38       53 1
     100       37       39 1
     101       36       38 1
     102       35       36 1
     103       34       69 1
     104       33       34 1
     105       32       34 1
     106       31       33 1
     107       31       36 1
     108       30       31 1
     109       29       32 1
     110       29       39 1
     111       28       29 1
     112       27       30 1
     113       26       27 1
     114       26       40 1
     115       25       27 1
     116       25       35 1
     117       24       25 1
     118       24       49 1
     119       23       40 1
     120       21       22 1
     121       21       75 1
     122       20       22 1
     123       20       28 1
     124       19       20 1
     125       19       37 1
     126       18       19 1
     127       18       41 1
     128       17       21 1
     129       16       17 1
     130       15       16 1
     131       15       18 1
     132       14       16 1
     133       13       15 1
     134       12       13 1
     135       11       12 1
     136       11       14 1
     137       10       11 1
     138        9       10 1
     139        9       57 1
     140        8       12 1
     141        8       45 1
     142        7        9 1
     143        6        8 1
     144        4        5 1
     145        4       23 1
     146        3        6 1
     147        2        5 1
     148        2        6 1
     149        2        7 1
     150        1        3 1
     151        1        4 1
     152        1       24 1
     153      132      194 1
     154      132      195 1
     155      132      196 1
     156      131      191 1
     157      131      192 1
     158      131      193 1
     159      130      188 1
     160      130      189 1
     161      130      190 1
     162      129      185 1
     163      129      186 1
     164      129      187 1
     165      126      184 1
     166      124      183 1
     167      103      182 1
     168      102      181 1
     169       97      180 1
     170       96      179 1
     171       91      178 1
     172       89      177 1
     173       78      176 1
     174       77      175 1
     175       76      174 1
     176       72      173 1
     177       71      172 1
     178       70      171 1
     179       66      170 1
     180       65      169 1
     181       64      168 1
     182       60      167 1
     183       59      166 1
     184       58      165 1
     185       54      163 1
     186       54      164 1
     187       53      161 1
     188       53      162 1
     189       50      159 1
     190       50      160 1
     191       49      157 1
     192       49      158 1
     193       46      155 1
     194       46      156 1
     195       45      153 1
     196       45      154 1
     197       42      151 1
     198       42      152 1
     199       41      149 1
     200       41      150 1
     201       40      148 1
     202       38      147 1
     203       37      146 1
     204       35      145 1
     205       34      144 1
     206       30      143 1
     207       28      142 1
     208       24      141 1
     209       21      140 1
     210       18      139 1
     211       14      138 1
     212       13      137 1
     213        9      136 1
     214        8      135 1
     215        5      134 1
     216        3      133 1
@<TRIPOS>SUBSTRUCTURE
       1 OAM             1 RESIDUE    0 **** ROOT      0
