@<TRIPOS>MOLECULE
OAM
196 216 1 0 1
SMALL
NO_CHARGES
@<TRIPOS>CRYSIN
   40.3240    40.3240    40.3240    90.0000    90.0000    90.0000  1  1
@<TRIPOS>ATOM
       1 C1          23.2100    30.6200    35.5000 C1            1 OAM     
       2 C2          21.0600    32.3500    35.7400 C2            1 OAM     
       3 C3          22.0400    30.2600    36.1400 C3            1 OAM     
       4 C4          23.2900    31.9000    34.9700 C4            1 OAM     
       5 C5          22.2300    32.7700    35.1200 C5            1 OAM     
       6 C6          20.9300    31.0800    36.2800 C6            1 OAM     
       7 O1          20.0200    33.2500    35.6800 O1            1 OAM     
       8 C7          19.6000    30.6300    36.8500 C7            1 OAM     
       9 C8          19.0000    33.0500    34.6900 C8            1 OAM     
      10 O2          17.8800    32.3800    35.3000 O2            1 OAM     
      11 C9          17.8300    31.0300    35.0900 C9            1 OAM     
      12 C10         18.7700    30.1900    35.6700 C10           1 OAM     
      13 C11         18.7600    28.8400    35.3500 C11           1 OAM     
      14 C12         16.8900    30.5400    34.1900 C12           1 OAM     
      15 C13         17.8100    28.3300    34.4600 C13           1 OAM     
      16 C14         16.9800    29.2100    33.7900 C14           1 OAM     
      17 O3          16.2200    28.8500    32.7000 O3            1 OAM     
      18 C15         17.6700    26.8600    34.1300 C15           1 OAM     
      19 C16         18.6600    26.5600    33.0300 C16           1 OAM     
      20 C17         18.2500    26.6000    31.7000 C17           1 OAM     
      21 C18         16.7600    28.4700    31.4200 C18           1 OAM     
      22 O4          16.9900    27.0500    31.3800 O4            1 OAM     
      23 O5          24.3800    32.3600    34.2700 O5            1 OAM     
      24 C19         24.3900    29.6900    35.2700 C19           1 OAM     
      25 C20         24.1400    29.0200    33.9300 C20           1 OAM     
      26 O6          25.2900    30.7600    32.8400 O6            1 OAM     
      27 C21         24.6200    29.5600    32.7500 C21           1 OAM     
      28 C22         19.1600    26.3200    30.6900 C22           1 OAM     
      29 C23         20.5100    26.2800    30.9800 C23           1 OAM     
      30 C24         24.3900    28.9400    31.5300 C24           1 OAM     
      31 C25         23.5900    27.8200    31.4600 C25           1 OAM     
      32 O7          21.4200    26.0200    29.9800 O7            1 OAM     
      33 O8          23.5100    27.2200    30.2200 O8            1 OAM     
      34 C26         22.1900    27.1900    29.6500 C26           1 OAM     
      35 C27         23.4000    27.8500    33.8100 C27           1 OAM     
      36 C28         23.0600    27.2500    32.6100 C28           1 OAM     
      37 C29         20.0000    26.3600    33.3200 C29           1 OAM     
      38 C30         22.3800    25.9000    32.5800 C30           1 OAM     
      39 C31         20.9200    26.1900    32.3000 C31           1 OAM     
      40 C32         24.4300    31.9200    32.9000 C32           1 OAM     
      41 C33         17.8400    26.0000    35.3900 C33           1 OAM     
      42 C34         17.5100    24.5400    35.0800 C34           1 OAM     
      43 C35         17.3500    23.7400    36.3500 C35           1 OAM     
      44 O9          18.3100    23.2000    36.8600 O9            1 OAM     
      45 C36         19.4700    29.6700    38.0400 C36           1 OAM     
      46 C37         20.0000    30.2600    39.3500 C37           1 OAM     
      47 C38         19.4000    31.6200    39.6400 C38           1 OAM     
      48 O10         20.0600    32.5000    40.1300 O10           1 OAM     
      49 C39         24.6200    28.6600    36.3900 C39           1 OAM     
      50 C40         25.8900    27.8400    36.1200 C40           1 OAM     
      51 C41         27.2000    28.5900    36.2300 C41           1 OAM     
      52 O11         28.1200    28.2600    35.5100 O11           1 OAM     
      53 C42         22.6800    25.0700    33.8300 C42           1 OAM     
      54 C43         24.1500    24.6300    33.9400 C43           1 OAM     
      55 C44         24.2800    23.4900    34.9200 C44           1 OAM     
      56 O12         23.6100    22.4800    34.7700 O12           1 OAM     
      57 C45         18.5300    34.4000    34.2000 C45           1 OAM     
      58 C46         17.9000    36.8000    32.9700 C46           1 OAM     
      59 C47         17.3100    34.5700    33.5500 C47           1 OAM     
      60 C48         19.4300    35.4600    34.2200 C48           1 OAM     
      61 C49         19.1700    36.6200    33.5200 C49           1 OAM     
      62 C50         16.9500    35.7900    32.9900 C50           1 OAM     
      63 C51         24.7700    33.0200    31.9200 C51           1 OAM     
      64 C52         25.0700    34.9300    29.9500 C52           1 OAM     
      65 C53         25.1500    32.6300    30.6400 C53           1 OAM     
      66 C54         24.4900    34.3400    32.2300 C54           1 OAM     
      67 C55         24.6800    35.2900    31.2300 C55           1 OAM     
      68 C56         25.3500    33.6000    29.6700 C56           1 OAM     
      69 C57         22.2600    27.5100    28.1700 C57           1 OAM     
      70 C58         22.3000    28.2200    25.5100 C58           1 OAM     
      71 C59         21.1700    27.2200    27.3600 C59           1 OAM     
      72 C60         23.2500    28.3300    27.6500 C60           1 OAM     
      73 C61         23.3600    28.6400    26.3000 C61           1 OAM     
      74 C62         21.1800    27.5800    26.0200 C62           1 OAM     
      75 C63         16.0500    29.0700    30.2300 C63           1 OAM     
      76 C64         15.1300    30.4800    28.1100 C64           1 OAM     
      77 C65         16.1500    28.4900    28.9700 C65           1 OAM     
      78 C66         15.4600    30.3100    30.4100 C66           1 OAM     
      79 C67         15.0300    31.1000    29.3400 C67           1 OAM     
      80 C68         15.6900    29.2300    27.8900 C68           1 OAM     
      81 O13         24.4200    36.6200    31.4000 O13           1 OAM     
      82 O14         24.3100    29.5100    25.8200 O14           1 OAM     
      83 O15         20.1600    27.2000    25.1800 O15           1 OAM     
      84 O16         20.1500    37.5800    33.3900 O16           1 OAM     
      85 O17         15.7300    36.0100    32.4100 O17           1 OAM     
      86 O18         15.9100    28.7600    26.6200 O18           1 OAM     
      87 O19         14.5600    32.3800    29.4200 O19           1 OAM     
      88 C69         25.2000    30.2000    26.6000 C69           1 OAM     
      89 C70         27.1600    31.4700    28.0700 C70           1 OAM     
      90 C71         24.9100    31.4400    27.1400 C71           1 OAM     
      91 C72         26.4200    29.5600    26.7900 C72           1 OAM     
      92 C73         27.3700    30.1900    27.5800 C73           1 OAM     
      93 C74         25.9300    32.0600    27.8600 C74           1 OAM     
      94 O20         25.7800    33.3200    28.4000 O20           1 OAM     
      95 C75         21.5100    37.4100    33.4700 C75           1 OAM     
      96 C76         24.2100    37.2100    33.6800 C76           1 OAM     
      97 C77         22.0900    37.4500    34.7300 C77           1 OAM     
      98 C78         22.2300    37.0600    32.3400 C78           1 OAM     
      99 C79         23.6100    36.9900    32.4500 C79           1 OAM     
     100 C80         23.4700    37.4000    34.8400 C80           1 OAM     
     101 C81         18.8600    26.9900    25.5500 C81           1 OAM     
     102 C82         16.2500    26.4100    26.3200 C82           1 OAM     
     103 C83         18.2700    25.7700    25.2400 C83           1 OAM     
     104 C84         18.0500    28.0200    26.0000 C84           1 OAM     
     105 C85         16.7400    27.7100    26.3100 C85           1 OAM     
     106 C86         17.0200    25.4200    25.7300 C86           1 OAM     
     107 C87         16.4000    24.0700    25.6200 C87           1 OAM     
     108 O21         15.2100    23.9100    25.7900 O21           1 OAM     
     109 C88         11.9300    33.2700    33.4600 C88           1 OAM     
     110 O22         11.7200    33.9100    34.4600 O22           1 OAM     
     111 C89         24.0900    37.5000    36.1900 C89           1 OAM     
     112 O23         23.5800    38.1700    37.0700 O23           1 OAM     
     113 O24         16.2400    23.6500    36.8300 O24           1 OAM     
     114 O25         24.8800    23.6800    35.9500 O25           1 OAM     
     115 O26         27.2800    29.5900    36.9100 O26           1 OAM     
     116 C90         28.7000    29.5600    27.8100 C90           1 OAM     
     117 O27         28.8500    28.3900    27.5000 O27           1 OAM     
     118 O28         11.3000    32.2300    33.3700 O28           1 OAM     
     119 O29         17.0100    23.1500    25.1100 O29           1 OAM     
     120 O30         29.5500    30.1000    28.4900 O30           1 OAM     
     121 O31         25.2500    37.1600    36.3100 O31           1 OAM     
     122 O32         18.2000    31.7600    39.5700 O32           1 OAM     
     123 C91         14.9300    35.0000    31.9400 C91           1 OAM     
     124 C92         13.4100    32.7700    31.4600 C92           1 OAM     
     125 C93         15.1800    34.2500    30.8000 C93           1 OAM     
     126 C94         13.8800    34.6600    32.7700 C94           1 OAM     
     127 C95         13.0600    33.5700    32.5400 C95           1 OAM     
     128 C96         14.4100    33.1300    30.5600 C96           1 OAM     
     129 C97         16.2900    34.6200    29.8300 C97           1 OAM     
     130 C98         21.5100    36.8400    31.0300 C98           1 OAM     
     131 C99         23.5300    32.0400    27.0500 C99           1 OAM     
     132 C           18.6800    29.4000    26.0700 C             1 OAM     
     133 H1          21.9900    29.2100    36.4200 H1            1 OAM     
     134 H2          22.4100    33.7900    34.7700 H2            1 OAM     
     135 H3          19.1800    31.5700    37.2100 H3            1 OAM     
     136 H4          19.4600    32.4000    33.9200 H4            1 OAM     
     137 H5          19.4800    28.2400    35.8900 H5            1 OAM     
     138 H6          16.1700    31.1800    33.7000 H6            1 OAM     
     139 H7          16.6400    26.6500    33.8400 H7            1 OAM     
     140 H8          17.7300    28.9900    31.4100 H8            1 OAM     
     141 H9          25.2600    30.3300    35.2400 H9            1 OAM     
     142 H10         18.8100    26.1800    29.6700 H10           1 OAM     
     143 H11         24.7700    29.4800    30.6600 H11           1 OAM     
     144 H12         21.7200    28.0700    30.0900 H12           1 OAM     
     145 H13         22.8200    27.5300    34.6700 H13           1 OAM     
     146 H14         20.2800    26.3200    34.3700 H14           1 OAM     
     147 H15         22.8100    25.3700    31.7300 H15           1 OAM     
     148 H16         23.4300    31.5400    32.6400 H16           1 OAM     
     149 H17         18.7700    26.1600    35.9400 H17           1 OAM     
     150 H18         17.0600    26.3100    36.0900 H18           1 OAM     
     151 H19         16.6300    24.4600    34.4400 H19           1 OAM     
     152 H20         18.3200    24.1100    34.4900 H20           1 OAM     
     153 H21         20.0500    28.7400    37.9100 H21           1 OAM     
     154 H22         18.4700    29.2600    38.1500 H22           1 OAM     
     155 H23         19.6600    29.6100    40.1600 H23           1 OAM     
     156 H24         21.0900    30.2700    39.2900 H24           1 OAM     
     157 H25         24.7400    29.0700    37.3900 H25           1 OAM     
     158 H26         23.7300    28.0400    36.5000 H26           1 OAM     
     159 H27         25.9100    27.0200    36.8500 H27           1 OAM     
     160 H28         25.9100    27.4200    35.1200 H28           1 OAM     
     161 H29         22.3300    25.4500    34.7900 H29           1 OAM     
     162 H30         22.0700    24.1800    33.6700 H30           1 OAM     
     163 H31         24.4900    24.3900    32.9200 H31           1 OAM     
     164 H32         24.7200    25.5200    34.1900 H32           1 OAM     
     165 H33         17.6500    37.6600    32.3500 H33           1 OAM     
     166 H34         16.5700    33.7700    33.5300 H34           1 OAM     
     167 H35         20.4400    35.4400    34.6200 H35           1 OAM     
     168 H36         25.2200    35.6600    29.1600 H36           1 OAM     
     169 H37         25.5200    31.6500    30.3500 H37           1 OAM     
     170 H38         23.9500    34.6300    33.1200 H38           1 OAM     
     171 H39         22.2900    28.5600    24.4800 H39           1 OAM     
     172 H40         20.3600    26.6600    27.8200 H40           1 OAM     
     173 H41         24.0700    28.7800    28.1900 H41           1 OAM     
     174 H42         14.6400    30.9400    27.2500 H42           1 OAM     
     175 H43         16.6200    27.5200    28.8900 H43           1 OAM     
     176 H44         15.3600    30.7500    31.3900 H44           1 OAM     
     177 H45         27.9500    31.9600    28.6400 H45           1 OAM     
     178 H46         26.6100    28.5800    26.3500 H46           1 OAM     
     179 H47         25.2800    37.2300    33.8200 H47           1 OAM     
     180 H48         21.4600    37.6700    35.5900 H48           1 OAM     
     181 H49         15.1900    26.2900    26.5300 H49           1 OAM     
     182 H50         18.8200    25.0100    24.6900 H50           1 OAM     
     183 H51         12.7900    31.9000    31.2600 H51           1 OAM     
     184 H52         13.6500    35.3600    33.5800 H52           1 OAM     
     185 H53         17.0400    33.8300    29.7700 H53           1 OAM     
     186 H54         15.8000    34.7500    28.8600 H54           1 OAM     
     187 H55         16.7500    35.5800    30.0700 H55           1 OAM     
     188 H56         20.6400    37.5100    30.9600 H56           1 OAM     
     189 H57         22.1700    36.9300    30.1600 H57           1 OAM     
     190 H58         21.1400    35.8200    31.1000 H58           1 OAM     
     191 H59         23.1200    31.8300    28.0400 H59           1 OAM     
     192 H60         23.5600    33.0900    26.7500 H60           1 OAM     
     193 H61         22.8900    31.5200    26.3400 H61           1 OAM     
     194 H62         17.8700    30.1000    26.2900 H62           1 OAM     
     195 H63         19.4100    29.4200    26.8800 H63           1 OAM     
     196 H64         19.1400    29.8000    25.1600 H64           1 OAM     
@<TRIPOS>BOND
       1       15       18 1
       2       15       13 1
       3       15       16 1
       4       52       51 1
       5       88       90 1
       6       88       91 1
       7       88       82 1
       8       53      162 1
       9       53      161 1
      10       53       54 1
      11       53       38 1
      12       89       92 1
      13       89       93 1
      14       89      177 1
      15       46       45 1
      16       46       47 1
      17       46      156 1
      18       46      155 1
      19       84       95 1
      20       84       61 1
      21       47      122 1
      22       47       48 1
      23       85       62 1
      24       85      123 1
      25       36       35 1
      26       36       31 1
      27       36       38 1
      28       82       73 1
      29       37       19 1
      30       37      146 1
      31       37       39 1
      32       83       74 1
      33       83      101 1
      34       49       50 1
      35       49      158 1
      36       49      157 1
      37       49       24 1
      38      138       14 1
      39      139       18 1
      40      140       21 1
      41      124      128 1
      42      124      127 1
      43      124      183 1
      44        3        6 1
      45        3      133 1
      46        3        1 1
      47      125      128 1
      48      125      129 1
      49      125      123 1
      50       42      152 1
      51       42      151 1
      52       42       41 1
      53       42       43 1
      54       43       44 1
      55       43      113 1
      56      123      126 1
      57       38      147 1
      58       38       39 1
      59      136        9 1
      60       39       29 1
      61      137       13 1
      62       20       19 1
      63       20       28 1
      64       20       22 1
      65      120      116 1
      66       21       17 1
      67       21       22 1
      68       21       75 1
      69      121      111 1
      70        4        5 1
      71        4        1 1
      72        4       23 1
      73      118      109 1
      74        5      134 1
      75        5        2 1
      76      119      107 1
      77       40      148 1
      78       40       63 1
      79       40       26 1
      80       40       23 1
      81       41      150 1
      82       41       18 1
      83       41      149 1
      84       32       34 1
      85       32       29 1
      86       33       34 1
      87       33       31 1
      88      135        8 1
      89       34       69 1
      90       34      144 1
      91      116       92 1
      92      116      117 1
      93       35       25 1
      94       35      145 1
      95        6        8 1
      96        6        2 1
      97      114       55 1
      98        7        9 1
      99        7        2 1
     100      115       51 1
     101       28       29 1
     102       28      142 1
     103       30      143 1
     104       30       31 1
     105       30       27 1
     106      132      194 1
     107      132      195 1
     108      132      104 1
     109      132      196 1
     110       16       17 1
     111       16       14 1
     112      112      111 1
     113       26       27 1
     114      110      109 1
     115       27       25 1
     116      111      100 1
     117       24       25 1
     118       24      141 1
     119       24        1 1
     120      130      190 1
     121      130       98 1
     122      130      188 1
     123      130      189 1
     124      131      192 1
     125      131      193 1
     126      131       90 1
     127      131      191 1
     128      128       87 1
     129      129      186 1
     130      129      187 1
     131      129      185 1
     132       18       19 1
     133      126      184 1
     134      126      127 1
     135      127      109 1
     136       12       13 1
     137       12        8 1
     138       12       11 1
     139        8       45 1
     140      104      105 1
     141      104      101 1
     142        9       10 1
     143        9       57 1
     144      105       86 1
     145      105      102 1
     146       10       11 1
     147      108      107 1
     148       11       14 1
     149      106      107 1
     150      106      102 1
     151      106      103 1
     152      102      181 1
     153      103      182 1
     154      103      101 1
     155      100       96 1
     156      100       97 1
     157       98       95 1
     158       98       99 1
     159       99       96 1
     160       99       81 1
     161       96      179 1
     162       97      180 1
     163       97       95 1
     164       94       68 1
     165       94       93 1
     166       92       91 1
     167       93       90 1
     168      178       91 1
     169      176       78 1
     170      174       76 1
     171       86       80 1
     172      175       77 1
     173       87       79 1
     174      172       71 1
     175      173       72 1
     176       45      153 1
     177       45      154 1
     178      170       66 1
     179      171       70 1
     180      168       64 1
     181       80       76 1
     182       80       77 1
     183      169       65 1
     184       81       67 1
     185      166       59 1
     186       78       79 1
     187       78       75 1
     188      167       60 1
     189       79       76 1
     190      164       54 1
     191      165       58 1
     192       70       73 1
     193       70       74 1
     194      163       54 1
     195       71       69 1
     196       71       74 1
     197      160       50 1
     198      159       50 1
     199       77       75 1
     200       72       73 1
     201       72       69 1
     202       66       67 1
     203       66       63 1
     204       67       64 1
     205       68       64 1
     206       68       65 1
     207       65       63 1
     208       60       61 1
     209       60       57 1
     210       61       58 1
     211       62       58 1
     212       62       59 1
     213       56       55 1
     214       57       59 1
     215       50       51 1
     216       54       55 1
@<TRIPOS>SUBSTRUCTURE
       1 OAM             1 RESIDUE    0 **** ROOT      0
