@<TRIPOS>MOLECULE
OAH
184 204 1 0 1
SMALL
NO_CHARGES
@<TRIPOS>CRYSIN
   40.3559    40.3559    40.3559    90.0000    90.0000    90.0000  1  1
@<TRIPOS>ATOM
       1 C1          21.3100    23.8900    18.0200 C1            1 OAH     
       2 C2          19.2000    23.9800    19.8500 C2            1 OAH     
       3 C3          21.2100    24.9700    18.9000 C3            1 OAH     
       4 C4          20.2700    22.9100    17.9800 C4            1 OAH     
       5 C5          19.2200    22.9700    18.8600 C5            1 OAH     
       6 C6          20.1500    25.0200    19.8800 C6            1 OAH     
       7 O1          18.2500    23.8900    20.8300 O1            1 OAH     
       8 C7          20.0800    26.1400    20.8800 C7            1 OAH     
       9 C8          18.6400    23.5700    22.2400 C8            1 OAH     
      10 O2          18.8600    24.7200    22.9800 O2            1 OAH     
      11 C9          20.1400    25.1200    23.2300 C9            1 OAH     
      12 C10         20.8200    25.8300    22.1800 C10           1 OAH     
      13 C11         22.1900    26.1600    22.3600 C11           1 OAH     
      14 C12         20.8400    24.6800    24.3100 C12           1 OAH     
      15 C13         22.8400    25.7500    23.5400 C13           1 OAH     
      16 C14         22.1500    24.9000    24.4300 C14           1 OAH     
      17 O3          22.8300    24.3400    25.4700 O3            1 OAH     
      18 C15         24.3500    26.0000    23.6800 C15           1 OAH     
      19 C16         25.2400    24.8900    23.1600 C16           1 OAH     
      20 C17         25.5300    23.7800    23.9800 C17           1 OAH     
      21 C18         23.6500    23.1700    25.2800 C18           1 OAH     
      22 O4          25.0100    23.6200    25.2500 O4            1 OAH     
      23 O5          20.3600    21.8200    17.1800 O5            1 OAH     
      24 C19         22.5700    23.8100    17.1100 C19           1 OAH     
      25 C20         23.7100    23.0100    17.8100 C20           1 OAH     
      26 O6          22.6700    20.9500    17.0100 O6            1 OAH     
      27 C21         23.6900    21.6300    17.6900 C21           1 OAH     
      28 C22         26.3000    22.7000    23.5500 C22           1 OAH     
      29 C23         26.6700    22.5500    22.2600 C23           1 OAH     
      30 C24         24.7100    20.8500    18.2500 C24           1 OAH     
      31 C25         25.6800    21.4200    19.0600 C25           1 OAH     
      32 O7          27.3100    21.3900    21.9300 O7            1 OAH     
      33 O8          26.6300    20.7200    19.8000 O8            1 OAH     
      34 C26         26.4100    20.5300    21.1900 C26           1 OAH     
      35 C27         24.6800    23.5700    18.5700 C27           1 OAH     
      36 C28         25.7400    22.8500    19.1300 C28           1 OAH     
      37 C29         25.7100    24.7700    21.8500 C29           1 OAH     
      38 C30         26.8400    23.5800    19.9300 C30           1 OAH     
      39 C31         26.4700    23.6600    21.3900 C31           1 OAH     
      40 C32         21.3300    20.8600    17.6700 C32           1 OAH     
      41 C33         24.7500    27.4300    23.0900 C33           1 OAH     
      42 C34         26.1800    27.9000    23.4300 C34           1 OAH     
      43 C35         26.5500    29.1700    22.7800 C35           1 OAH     
      44 O9          25.9000    29.5200    21.8100 O9            1 OAH     
      45 C36         20.4200    27.5600    20.2600 C36           1 OAH     
      46 C37         19.8500    28.7100    21.0800 C37           1 OAH     
      47 C38         18.3600    28.8700    20.9000 C38           1 OAH     
      48 O10         17.8700    29.3700    19.9200 O10           1 OAH     
      49 C39         23.0100    25.1800    16.5400 C39           1 OAH     
      50 C40         24.2200    24.8700    15.5600 C40           1 OAH     
      51 C41         23.7100    24.2600    14.2300 C41           1 OAH     
      52 O11         23.0600    24.9400    13.4600 O11           1 OAH     
      53 C42         27.3400    24.8800    19.2600 C42           1 OAH     
      54 C43         28.5000    25.5900    19.9400 C43           1 OAH     
      55 C44         28.8900    26.8300    19.1400 C44           1 OAH     
      56 O12         28.0800    27.7300    19.0300 O12           1 OAH     
      57 C45         17.4800    22.7700    22.8200 C45           1 OAH     
      58 C46         15.4000    21.0600    23.9000 C46           1 OAH     
      59 C47         17.2900    22.6800    24.1900 C47           1 OAH     
      60 C48         16.5900    22.0300    22.0100 C48           1 OAH     
      61 C49         15.5500    21.2400    22.4900 C49           1 OAH     
      62 C50         16.3000    21.8000    24.7200 C50           1 OAH     
      63 C51         20.6700    19.4700    17.6800 C51           1 OAH     
      64 C52         19.7200    16.9900    18.3800 C52           1 OAH     
      65 C53         21.4800    18.3700    17.5400 C53           1 OAH     
      66 C54         19.3900    19.3000    18.1100 C54           1 OAH     
      67 C55         18.8700    18.0300    18.3600 C55           1 OAH     
      68 C56         21.0100    17.1300    17.8400 C56           1 OAH     
      69 C57         26.5500    19.0500    21.5500 C57           1 OAH     
      70 C58         26.7000    16.3500    22.2700 C58           1 OAH     
      71 C59         27.0500    18.6100    22.7800 C59           1 OAH     
      72 C60         26.0300    18.0400    20.7400 C60           1 OAH     
      73 C61         26.1100    16.7000    21.0800 C61           1 OAH     
      74 C62         27.1200    17.2700    23.1600 C62           1 OAH     
      75 C63         23.4000    22.0600    26.3500 C63           1 OAH     
      76 C64         22.6800    19.7300    27.7400 C64           1 OAH     
      77 C65         24.3800    21.1200    26.7100 C65           1 OAH     
      78 C66         22.0300    21.8000    26.7400 C66           1 OAH     
      79 C67         21.6600    20.6400    27.3700 C67           1 OAH     
      80 C68         23.9700    19.8900    27.3600 C68           1 OAH     
      81 O13         17.6400    17.9100    18.9900 O13           1 OAH     
      82 O14         25.8200    15.7100    20.2100 O14           1 OAH     
      83 O15         27.6700    16.8500    24.3900 O15           1 OAH     
      84 O16         14.7100    20.5000    21.7000 O16           1 OAH     
      85 O17         16.1200    21.6500    26.0600 O17           1 OAH     
      86 O18         24.8900    18.8600    27.6000 O18           1 OAH     
      87 O19         20.3600    20.3100    27.6500 O19           1 OAH     
      88 C69         25.1600    15.9700    19.0500 C69           1 OAH     
      89 C70         23.8200    16.4300    16.6900 C70           1 OAH     
      90 C71         23.7800    15.8000    18.9700 C71           1 OAH     
      91 C72         25.8600    16.3700    17.8900 C72           1 OAH     
      92 C73         25.1900    16.6500    16.6900 C73           1 OAH     
      93 C74         23.1000    16.0000    17.7900 C74           1 OAH     
      94 O20         21.7000    16.0000    17.7400 O20           1 OAH     
      95 C75         15.1800    20.1200    20.4800 C75           1 OAH     
      96 C76         16.0200    19.4000    17.9300 C76           1 OAH     
      97 C77         14.5600    20.6700    19.3900 C77           1 OAH     
      98 C78         16.2200    19.2300    20.3600 C78           1 OAH     
      99 C79         16.6200    18.8600    19.1200 C79           1 OAH     
     100 C80         15.0100    20.3500    18.0900 C80           1 OAH     
     101 C81         27.5400    17.6300    25.4700 C81           1 OAH     
     102 C82         27.3200    19.2300    27.7400 C82           1 OAH     
     103 C83         28.6900    18.2100    25.9500 C83           1 OAH     
     104 C84         26.3300    17.9100    26.0400 C84           1 OAH     
     105 C85         26.1600    18.7900    27.1200 C85           1 OAH     
     106 C86         28.5400    19.0700    27.1000 C86           1 OAH     
     107 C87         29.8200    19.7100    27.6600 C87           1 OAH     
     108 O21         30.8100    19.8400    26.9300 O21           1 OAH     
     109 C88         17.7300    23.3500    30.3600 C88           1 OAH     
     110 O22         16.6900    23.9100    30.6200 O22           1 OAH     
     111 C89         14.4500    21.0300    16.8500 C89           1 OAH     
     112 O23         14.7400    20.5200    15.7900 O23           1 OAH     
     113 O24         27.5500    29.6900    23.1100 O24           1 OAH     
     114 O25         29.9900    27.0100    18.6500 O25           1 OAH     
     115 O26         23.5900    23.0400    14.1400 O26           1 OAH     
     116 C90         25.8300    17.1400    15.4300 C90           1 OAH     
     117 O27         25.1500    17.5100    14.4900 O27           1 OAH     
     118 O28         18.6000    23.3700    31.2200 O28           1 OAH     
     119 O29         29.8600    20.1000    28.7900 O29           1 OAH     
     120 O30         27.0500    17.3000    15.3700 O30           1 OAH     
     121 O31         14.1500    22.2000    16.9600 O31           1 OAH     
     122 O32         17.6200    28.4400    21.7200 O32           1 OAH     
     123 C91         17.1000    21.7900    27.0400 C91           1 OAH     
     124 C92         19.0600    21.8400    28.9200 C92           1 OAH     
     125 C93         18.2800    21.0200    26.8600 C93           1 OAH     
     126 C94         16.8600    22.5300    28.1600 C94           1 OAH     
     127 C95         17.8800    22.5300    29.1700 C95           1 OAH     
     128 C96         19.2800    21.1000    27.7700 C96           1 OAH     
     129 H1          22.0100    25.6900    19.0300 H1            1 OAH     
     130 H2          18.4200    22.2300    18.8600 H2            1 OAH     
     131 H3          19.0200    26.3300    21.1100 H3            1 OAH     
     132 H4          19.4900    22.8700    22.2200 H4            1 OAH     
     133 H5          22.6600    26.7600    21.5800 H5            1 OAH     
     134 H6          20.3200    24.1100    25.0700 H6            1 OAH     
     135 H7          24.5400    26.1700    24.7400 H7            1 OAH     
     136 H8          23.3900    22.7700    24.2900 H8            1 OAH     
     137 H9          22.1600    23.3000    16.2400 H9            1 OAH     
     138 H10         26.5200    21.9100    24.2700 H10           1 OAH     
     139 H11         24.6800    19.7700    18.2200 H11           1 OAH     
     140 H12         25.3700    20.7800    21.4500 H12           1 OAH     
     141 H13         24.6300    24.6400    18.7200 H13           1 OAH     
     142 H14         25.5000    25.5800    21.1600 H14           1 OAH     
     143 H15         27.6800    22.8900    19.8900 H15           1 OAH     
     144 H16         21.4900    21.1400    18.7200 H16           1 OAH     
     145 H17         24.6300    27.4700    22.0000 H17           1 OAH     
     146 H18         24.1300    28.2100    23.5200 H18           1 OAH     
     147 H19         26.2500    28.0300    24.5100 H19           1 OAH     
     148 H20         26.9100    27.1700    23.0700 H20           1 OAH     
     149 H21         19.8800    27.5500    19.3100 H21           1 OAH     
     150 H22         21.5000    27.6000    20.1100 H22           1 OAH     
     151 H23         20.0100    28.4300    22.1200 H23           1 OAH     
     152 H24         20.3200    29.6500    20.7800 H24           1 OAH     
     153 H25         22.2100    25.7100    16.0300 H25           1 OAH     
     154 H26         23.3500    25.9000    17.2800 H26           1 OAH     
     155 H27         24.5200    25.9100    15.4200 H27           1 OAH     
     156 H28         25.0600    24.3700    16.0300 H28           1 OAH     
     157 H29         27.8000    24.5300    18.3300 H29           1 OAH     
     158 H30         26.5600    25.6300    19.0800 H30           1 OAH     
     159 H31         28.2100    25.9300    20.9300 H31           1 OAH     
     160 H32         29.3400    24.9000    19.9500 H32           1 OAH     
     161 H33         14.5800    20.5800    24.4200 H33           1 OAH     
     162 H34         17.9900    23.2300    24.8200 H34           1 OAH     
     163 H35         16.7600    22.0700    20.9300 H35           1 OAH     
     164 H36         19.3000    16.0200    18.6300 H36           1 OAH     
     165 H37         22.5200    18.5600    17.2800 H37           1 OAH     
     166 H38         18.8400    20.1900    18.3800 H38           1 OAH     
     167 H39         26.7900    15.3000    22.5100 H39           1 OAH     
     168 H40         27.3800    19.3500    23.5000 H40           1 OAH     
     169 H41         25.6100    18.4000    19.8000 H41           1 OAH     
     170 H42         22.4500    18.8600    28.3500 H42           1 OAH     
     171 H43         25.4000    21.2600    26.3800 H43           1 OAH     
     172 H44         21.3000    22.5300    26.4200 H44           1 OAH     
     173 H45         23.2400    16.7600    15.8400 H45           1 OAH     
     174 H46         23.2200    15.6100    19.8900 H46           1 OAH     
     175 H47         26.9500    16.4200    17.8500 H47           1 OAH     
     176 H48         16.4300    19.0500    16.9900 H48           1 OAH     
     177 H49         13.7300    21.3600    19.5300 H49           1 OAH     
     178 H50         16.7500    18.8400    21.2300 H50           1 OAH     
     179 H51         27.2100    19.9500    28.5500 H51           1 OAH     
     180 H52         29.7000    18.0100    25.6000 H52           1 OAH     
     181 H53         25.4900    17.4300    25.5500 H53           1 OAH     
     182 H54         19.9500    21.9000    29.5400 H54           1 OAH     
     183 H55         18.4800    20.4900    25.9400 H55           1 OAH     
     184 H56         15.8700    22.9500    28.2900 H56           1 OAH     
@<TRIPOS>BOND
       1        2        5 1
       2        2        6 1
       3        2        7 1
       4       63       65 1
       5       63       66 1
       6       63       40 1
       7       64       67 1
       8       64       68 1
       9       64      164 1
      10       65       68 1
      11       65      165 1
      12       66       67 1
      13       66      166 1
      14        1       24 1
      15        1        3 1
      16        1        4 1
      17       67       81 1
      18       68       94 1
      19       69       71 1
      20       69       72 1
      21       69       34 1
      22       70       73 1
      23       70       74 1
      24       70      167 1
      25       71      168 1
      26       71       74 1
      27       72      169 1
      28       72       73 1
      29       73       82 1
      30       74       83 1
      31       75       21 1
      32       75       77 1
      33       75       78 1
      34       76      170 1
      35       76       79 1
      36       76       80 1
      37       77      171 1
      38       77       80 1
      39       78      172 1
      40       78       79 1
      41       79       87 1
      42       80       86 1
      43       81       99 1
      44       82       88 1
      45       83      101 1
      46       84       95 1
      47       84       61 1
      48       85       62 1
      49       85      123 1
      50       86      105 1
      51       87      128 1
      52       88       90 1
      53       88       91 1
      54       89      173 1
      55       89       92 1
      56       89       93 1
      57       90      174 1
      58       90       93 1
      59       91      175 1
      60       91       92 1
      61       92      116 1
      62       93       94 1
      63       95       97 1
      64       95       98 1
      65       96      176 1
      66       96       99 1
      67       96      100 1
      68       97      177 1
      69       97      100 1
      70       98      178 1
      71       98       99 1
      72      100      111 1
      73      101      104 1
      74      101      103 1
      75      102      105 1
      76      102      106 1
      77      102      179 1
      78      103      180 1
      79      103      106 1
      80      104      105 1
      81      104      181 1
      82      106      107 1
      83      107      108 1
      84      107      119 1
      85      109      127 1
      86      109      118 1
      87      109      110 1
      88      111      121 1
      89      111      112 1
      90      113       43 1
      91      114       55 1
      92      115       51 1
      93      116      117 1
      94      116      120 1
      95      122       47 1
      96      123      125 1
      97      123      126 1
      98      124      127 1
      99      124      128 1
     100      124      182 1
     101      125      128 1
     102      125      183 1
     103      126      127 1
     104      126      184 1
     105      129        3 1
     106      130        5 1
     107      131        8 1
     108      132        9 1
     109      133       13 1
     110      134       14 1
     111      135       18 1
     112      136       21 1
     113      137       24 1
     114      138       28 1
     115      139       30 1
     116      140       34 1
     117      141       35 1
     118      142       37 1
     119      143       38 1
     120      144       40 1
     121      145       41 1
     122      146       41 1
     123      147       42 1
     124      148       42 1
     125      149       45 1
     126      150       45 1
     127      151       46 1
     128      152       46 1
     129      153       49 1
     130      154       49 1
     131      155       50 1
     132      156       50 1
     133      157       53 1
     134      158       53 1
     135      159       54 1
     136      160       54 1
     137      161       58 1
     138      162       59 1
     139      163       60 1
     140       62       58 1
     141       62       59 1
     142        3        6 1
     143        4       23 1
     144        4        5 1
     145        6        8 1
     146        7        9 1
     147        8       45 1
     148        8       12 1
     149        9       10 1
     150        9       57 1
     151       10       11 1
     152       11       12 1
     153       11       14 1
     154       12       13 1
     155       13       15 1
     156       14       16 1
     157       15       16 1
     158       15       18 1
     159       16       17 1
     160       17       21 1
     161       18       41 1
     162       18       19 1
     163       19       20 1
     164       19       37 1
     165       20       22 1
     166       20       28 1
     167       21       22 1
     168       23       40 1
     169       24       25 1
     170       24       49 1
     171       25       27 1
     172       25       35 1
     173       26       27 1
     174       26       40 1
     175       27       30 1
     176       28       29 1
     177       29       32 1
     178       29       39 1
     179       30       31 1
     180       31       33 1
     181       31       36 1
     182       32       34 1
     183       33       34 1
     184       35       36 1
     185       36       38 1
     186       37       39 1
     187       38       53 1
     188       38       39 1
     189       41       42 1
     190       42       43 1
     191       43       44 1
     192       45       46 1
     193       46       47 1
     194       47       48 1
     195       49       50 1
     196       50       51 1
     197       51       52 1
     198       53       54 1
     199       54       55 1
     200       55       56 1
     201       57       59 1
     202       57       60 1
     203       58       61 1
     204       60       61 1
@<TRIPOS>SUBSTRUCTURE
       1 OAH             1 RESIDUE    0 **** ROOT      0
