@<TRIPOS>MOLECULE
OCT
184 204 1 0 1
SMALL
USER_CHARGES
@<TRIPOS>CRYSIN
   40.3326    40.3326    40.3326    90.0000    90.0000    90.0000  1  1
@<TRIPOS>ATOM
       1 C1          20.8252    24.4036    18.3702 ca            1 OCT        0.007966
       2 C2          18.8396    24.0332    20.2362 ca            1 OCT        0.023462
       3 C3          20.6909    25.2636    19.4265 ca            1 OCT       -0.215113
       4 C4          19.8941    23.4497    18.1631 ca            1 OCT        0.023462
       5 C5          18.8788    23.2167    19.1035 ca            1 OCT       -0.124092
       6 C6          19.7274    25.0575    20.3952 ca            1 OCT        0.007966
       7 O1          17.9274    23.6748    21.1987 os            1 OCT       -0.249831
       8 C7          19.7206    25.9949    21.6408 c3            1 OCT        0.014967
       9 C8          18.3847    23.0185    22.4317 c3            1 OCT        0.068147
      10 O2          18.6631    24.0312    23.4118 os            1 OCT       -0.249831
      11 C9          19.9733    24.4047    23.6491 ca            1 OCT        0.023462
      12 C10         20.5776    25.4019    22.8080 ca            1 OCT        0.007966
      13 C11         21.9108    25.7170    23.0087 ca            1 OCT       -0.215113
      14 C12         20.7344    23.7073    24.6326 ca            1 OCT       -0.124092
      15 C13         22.6239    25.1176    24.0286 ca            1 OCT        0.007966
      16 C14         22.0066    24.0829    24.8272 ca            1 OCT        0.023462
      17 O3          22.7218    23.3806    25.7545 os            1 OCT       -0.249831
      18 C15         24.0732    25.5188    24.1633 c3            1 OCT        0.014967
      19 C16         24.9567    24.5304    23.3537 ca            1 OCT        0.007966
      20 C17         25.4514    23.3426    23.9712 ca            1 OCT        0.023462
      21 C18         23.7235    22.4824    25.2537 c3            1 OCT        0.068147
      22 O4          25.0942    22.9492    25.2624 os            1 OCT       -0.249831
      23 O5          20.0417    22.5124    17.1935 os            1 OCT       -0.249831
      24 C19         22.0327    24.5989    17.4225 c3            1 OCT        0.014967
      25 C20         23.2232    23.7285    17.7980 ca            1 OCT        0.007966
      26 O6          22.3354    21.7275    16.7346 os            1 OCT       -0.249831
      27 C21         23.3424    22.3634    17.4524 ca            1 OCT        0.023462
      28 C22         26.2114    22.4186    23.3040 ca            1 OCT       -0.124092
      29 C23         26.5751    22.6405    21.9779 ca            1 OCT        0.023462
      30 C24         24.4370    21.6172    17.8422 ca            1 OCT       -0.124092
      31 C25         25.4758    22.1205    18.6634 ca            1 OCT        0.023462
      32 O7          27.1484    21.6204    21.2977 os            1 OCT       -0.249831
      33 O8          26.4110    21.2865    19.1552 os            1 OCT       -0.249831
      34 C26         26.2338    20.8204    20.5102 c3            1 OCT        0.068147
      35 C27         24.2186    24.2049    18.6386 ca            1 OCT       -0.215113
      36 C28         25.3840    23.4703    19.0153 ca            1 OCT        0.007966
      37 C29         25.3893    24.7883    22.0300 ca            1 OCT       -0.215113
      38 C30         26.5681    24.0841    19.7869 c3            1 OCT        0.014967
      39 C31         26.2559    23.8734    21.3252 ca            1 OCT        0.007966
      40 C32         21.1235    21.4966    17.5060 c3            1 OCT        0.068147
      41 C33         24.3399    27.0356    23.9958 c3            1 OCT        0.142268
      42 C34         25.7926    27.5275    24.3018 c3            1 OCT       -0.082342
      43 C35         26.0300    28.9802    23.8805 c             1 OCT        0.883098
      44 O9          25.1496    29.7488    23.4552 o             1 OCT       -0.850868
      45 C36         19.8804    27.5444    21.2804 c3            1 OCT        0.142268
      46 C37         19.2820    28.3718    22.3968 c3            1 OCT       -0.082342
      47 C38         17.8130    28.3431    22.3301 c             1 OCT        0.883098
      48 O10         17.2108    29.1110    21.6188 o             1 OCT       -0.850868
      49 C39         22.4361    26.0743    17.0453 c3            1 OCT        0.142268
      50 C40         23.5660    26.1418    15.9987 c3            1 OCT       -0.082342
      51 C41         23.0128    25.7152    14.6559 c             1 OCT        0.883098
      52 O11         22.4472    26.4859    13.9189 o             1 OCT       -0.850868
      53 C42         26.7721    25.5984    19.3415 c3            1 OCT        0.142268
      54 C43         28.0732    26.1394    19.9626 c3            1 OCT       -0.082342
      55 C44         28.3700    27.5986    19.5335 c             1 OCT        0.883098
      56 O12         27.5553    28.4740    19.7749 o             1 OCT       -0.850868
      57 C45         17.4192    22.0041    22.9606 ca            1 OCT       -0.005566
      58 C46         15.5947    20.0815    23.8320 ca            1 OCT       -0.283538
      59 C47         17.3158    21.6480    24.2851 ca            1 OCT       -0.137849
      60 C48         16.5917    21.3615    22.0210 ca            1 OCT       -0.137849
      61 C49         15.6233    20.4450    22.4614 ca            1 OCT        0.230002
      62 C50         16.4090    20.7278    24.7329 ca            1 OCT        0.230002
      63 C51         20.6191    20.1023    17.2854 ca            1 OCT       -0.005566
      64 C52         19.8052    17.4654    17.3470 ca            1 OCT       -0.283538
      65 C53         21.5110    19.1206    16.8543 ca            1 OCT       -0.137849
      66 C54         19.3006    19.7914    17.6108 ca            1 OCT       -0.137849
      67 C55         18.8689    18.4495    17.7067 ca            1 OCT        0.230002
      68 C56         21.0722    17.7407    16.8028 ca            1 OCT        0.230002
      69 C57         26.5081    19.3170    20.5924 ca            1 OCT       -0.005566
      70 C58         26.8819    16.5329    20.7952 ca            1 OCT       -0.283538
      71 C59         27.1728    18.7210    21.6959 ca            1 OCT       -0.137849
      72 C60         26.0159    18.4596    19.6043 ca            1 OCT       -0.137849
      73 C61         26.2114    17.0300    19.6451 ca            1 OCT        0.230002
      74 C62         27.3885    17.3531    21.7346 ca            1 OCT        0.230002
      75 C63         23.5935    21.1014    25.8809 ca            1 OCT       -0.005566
      76 C64         23.2510    18.6117    27.1322 ca            1 OCT       -0.283538
      77 C65         24.6261    20.1369    25.9740 ca            1 OCT       -0.137849
      78 C66         22.3326    20.6384    26.3573 ca            1 OCT       -0.137849
      79 C67         22.1342    19.4379    26.8919 ca            1 OCT        0.230002
      80 C68         24.4831    18.9334    26.5631 ca            1 OCT        0.230002
      81 O13         17.5409    18.1099    17.8802 os            1 OCT       -0.291846
      82 O14         25.8816    16.1573    18.6276 os            1 OCT       -0.291846
      83 O15         28.0543    16.7663    22.7957 os            1 OCT       -0.291846
      84 O16         14.8525    19.7703    21.4623 os            1 OCT       -0.291846
      85 O17         16.4156    20.2207    25.9887 os            1 OCT       -0.291846
      86 O18         25.4731    17.9725    26.6535 os            1 OCT       -0.291846
      87 O19         20.8022    18.9046    27.1262 os            1 OCT       -0.291846
      88 C69         25.2964    16.6288    17.5278 ca            1 OCT        0.039764
      89 C70         23.8430    17.4488    15.3483 ca            1 OCT       -0.099238
      90 C71         23.9570    16.3639    17.4331 ca            1 OCT       -0.122366
      91 C72         25.9393    17.2159    16.4659 ca            1 OCT       -0.099238
      92 C73         25.1931    17.6727    15.3161 ca            1 OCT       -0.155820
      93 C74         23.2011    16.7801    16.3588 ca            1 OCT        0.039764
      94 O20         21.8141    16.6725    16.4021 os            1 OCT       -0.291846
      95 C75         15.1913    19.7138    20.1878 ca            1 OCT        0.039764
      96 C76         15.8386    19.7293    17.5062 ca            1 OCT       -0.099238
      97 C77         14.4200    20.4542    19.3040 ca            1 OCT       -0.099238
      98 C78         16.2338    18.9639    19.7235 ca            1 OCT       -0.122366
      99 C79         16.4990    18.9151    18.3612 ca            1 OCT        0.039764
     100 C80         14.7669    20.4942    17.9752 ca            1 OCT       -0.155820
     101 C81         27.9722    17.2780    24.0414 ca            1 OCT        0.039764
     102 C82         27.8125    18.4807    26.4953 ca            1 OCT       -0.099238
     103 C83         29.0998    17.8735    24.6048 ca            1 OCT       -0.099238
     104 C84         26.7872    17.3415    24.6877 ca            1 OCT       -0.122366
     105 C85         26.6669    17.9874    25.9545 ca            1 OCT        0.039764
     106 C86         29.0278    18.4729    25.8775 ca            1 OCT       -0.155820
     107 C87         30.2411    19.3493    26.3737 c             1 OCT        0.879713
     108 O21         31.2122    19.3680    25.6233 o             1 OCT       -0.810925
     109 C88         18.1698    21.3853    30.3558 c             1 OCT        0.879713
     110 O22         17.1421    22.0496    30.5342 o             1 OCT       -0.810925
     111 C89         14.0686    21.4932    17.0669 c             1 OCT        0.879713
     112 O23         13.8605    21.2432    15.9216 o             1 OCT       -0.810925
     113 O24         27.1260    29.4570    24.1171 o             1 OCT       -0.850868
     114 O25         29.4103    27.8259    19.0011 o             1 OCT       -0.850868
     115 O26         22.9016    24.5193    14.3684 o             1 OCT       -0.850868
     116 C90         25.6920    18.5098    14.2084 c             1 OCT        0.879713
     117 O27         25.0736    19.1034    13.3376 o             1 OCT       -0.810925
     118 O28         18.9977    21.2227    31.2060 o             1 OCT       -0.810925
     119 O29         30.2069    19.7657    27.5307 o             1 OCT       -0.810925
     120 O30         26.8558    18.8196    14.3195 o             1 OCT       -0.810925
     121 O31         13.6848    22.6007    17.4878 o             1 OCT       -0.810925
     122 O32         17.1700    27.6900    23.0961 o             1 OCT       -0.850868
     123 C91         17.4824    20.3289    26.8326 ca            1 OCT        0.039764
     124 C92         19.5626    20.1061    28.6680 ca            1 OCT       -0.099238
     125 C93         18.6830    19.7260    26.4607 ca            1 OCT       -0.122366
     126 C94         17.3425    20.8025    28.0972 ca            1 OCT       -0.099238
     127 C95         18.4333    20.8012    29.0362 ca            1 OCT       -0.155820
     128 C96         19.7191    19.6753    27.3614 ca            1 OCT        0.039764
     129 H1          21.3603    26.1113    19.5484 ha            1 OCT        0.143125
     130 H2          18.1580    22.4326    18.8863 ha            1 OCT        0.194665
     131 H3          18.6894    25.8551    21.9718 hc            1 OCT        0.122328
     132 H4          19.3551    22.5275    22.2664 h2            1 OCT        0.144089
     133 H5          22.3766    26.4413    22.3455 ha            1 OCT        0.143125
     134 H6          20.2839    22.9279    25.2418 ha            1 OCT        0.194665
     135 H7          24.3813    25.2995    25.1878 hc            1 OCT        0.122328
     136 H8          23.4420    22.3821    24.1951 h2            1 OCT        0.144089
     137 H9          21.6666    24.1810    16.4824 hc            1 OCT        0.122328
     138 H10         26.4471    21.5055    23.8446 ha            1 OCT        0.194665
     139 H11         24.5148    20.6245    17.4063 ha            1 OCT        0.194665
     140 H12         25.1612    20.9427    20.7215 h2            1 OCT        0.144089
     141 H13         24.2480    25.2785    18.8061 ha            1 OCT        0.143125
     142 H14         25.1411    25.7095    21.5091 ha            1 OCT        0.143125
     143 H15         27.4524    23.4885    19.5509 hc            1 OCT        0.122328
     144 H16         21.4288    21.6599    18.5501 h2            1 OCT        0.144089
     145 H17         24.0266    27.3484    22.9976 hc            1 OCT       -0.006278
     146 H18         23.6887    27.5717    24.6894 hc            1 OCT       -0.006278
     147 H19         26.0526    27.3793    25.3520 hc            1 OCT       -0.050788
     148 H20         26.5539    26.9732    23.7490 hc            1 OCT       -0.050788
     149 H21         19.3484    27.7174    20.3426 hc            1 OCT       -0.006278
     150 H22         20.9146    27.8816    21.1841 hc            1 OCT       -0.006278
     151 H23         19.6405    28.0019    23.3597 hc            1 OCT       -0.050788
     152 H24         19.6765    29.3677    22.1847 hc            1 OCT       -0.050788
     153 H25         21.6061    26.6313    16.6056 hc            1 OCT       -0.006278
     154 H26         22.7517    26.4935    18.0030 hc            1 OCT       -0.006278
     155 H27         23.9024    27.1801    15.9625 hc            1 OCT       -0.050788
     156 H28         24.4506    25.5189    16.1467 hc            1 OCT       -0.050788
     157 H29         26.9708    25.5770    18.2679 hc            1 OCT       -0.006278
     158 H30         25.8946    26.2190    19.5347 hc            1 OCT       -0.006278
     159 H31         27.8450    26.2190    21.0275 hc            1 OCT       -0.050788
     160 H32         28.8901    25.4650    19.6977 hc            1 OCT       -0.050788
     161 H33         15.0106    19.2416    24.1992 ha            1 OCT        0.112507
     162 H34         17.9480    22.1345    25.0234 ha            1 OCT        0.144014
     163 H35         16.6075    21.6619    20.9765 ha            1 OCT        0.144014
     164 H36         19.4964    16.4236    17.3158 ha            1 OCT        0.112507
     165 H37         22.5231    19.4211    16.5957 ha            1 OCT        0.144014
     166 H38         18.6075    20.5845    17.8794 ha            1 OCT        0.144014
     167 H39         26.9737    15.4649    20.9754 ha            1 OCT        0.112507
     168 H40         27.5423    19.3370    22.5117 ha            1 OCT        0.144014
     169 H41         25.3787    18.8866    18.8340 ha            1 OCT        0.144014
     170 H42         23.1114    17.6250    27.5665 ha            1 OCT        0.112507
     171 H43         25.5844    20.5085    25.6203 ha            1 OCT        0.144014
     172 H44         21.4251    21.2174    26.2057 ha            1 OCT        0.144014
     173 H45         23.2258    17.8415    14.5443 ha            1 OCT        0.127588
     174 H46         23.3959    15.9979    18.2892 ha            1 OCT        0.133583
     175 H47         27.0153    17.3679    16.4939 ha            1 OCT        0.127588
     176 H48         16.0562    19.7759    16.4422 ha            1 OCT        0.127588
     177 H49         13.5498    21.0546    19.5567 ha            1 OCT        0.127588
     178 H50         16.7533    18.3450    20.4505 ha            1 OCT        0.133583
     179 H51         27.8204    18.9444    27.4784 ha            1 OCT        0.127588
     180 H52         30.0241    17.9054    24.0337 ha            1 OCT        0.127588
     181 H53         25.9242    16.9225    24.1765 ha            1 OCT        0.133583
     182 H54         20.3743    19.9436    29.3725 ha            1 OCT        0.127588
     183 H55         18.7867    19.2959    25.4678 ha            1 OCT        0.133583
     184 H56         16.3775    21.1571    28.4503 ha            1 OCT        0.127588
@<TRIPOS>BOND
       1      126      127 1
       2      125      128 1
       3      124      127 1
       4      124      128 1
       5      123      125 1
       6      123      126 1
       7      116      117 1
       8      116      120 1
       9      111      112 1
      10      111      121 1
      11      109      110 1
      12      109      118 1
      13      109      127 1
      14      107      108 1
      15      107      119 1
      16      106      107 1
      17      104      105 1
      18      103      106 1
      19      102      105 1
      20      102      106 1
      21      101      103 1
      22      101      104 1
      23      100      111 1
      24       98       99 1
      25       97      100 1
      26       96       99 1
      27       96      100 1
      28       95       97 1
      29       95       98 1
      30       93       94 1
      31       92      116 1
      32       91       92 1
      33       90       93 1
      34       89       92 1
      35       89       93 1
      36       88       90 1
      37       88       91 1
      38       87      128 1
      39       86      105 1
      40       85      123 1
      41       84       95 1
      42       83      101 1
      43       82       88 1
      44       81       99 1
      45       80       86 1
      46       79       87 1
      47       78       79 1
      48       77       80 1
      49       76       79 1
      50       76       80 1
      51       75       77 1
      52       75       78 1
      53       74       83 1
      54       73       82 1
      55       72       73 1
      56       71       74 1
      57       70       73 1
      58       70       74 1
      59       69       71 1
      60       69       72 1
      61       68       94 1
      62       67       81 1
      63       66       67 1
      64       65       68 1
      65       64       67 1
      66       64       68 1
      67       63       65 1
      68       63       66 1
      69       62       85 1
      70       61       84 1
      71       60       61 1
      72       59       62 1
      73       58       61 1
      74       58       62 1
      75       57       59 1
      76       57       60 1
      77       55       56 1
      78       55      114 1
      79       54       55 1
      80       53       54 1
      81       51       52 1
      82       51      115 1
      83       50       51 1
      84       49       50 1
      85       47       48 1
      86       47      122 1
      87       46       47 1
      88       45       46 1
      89       43       44 1
      90       43      113 1
      91       42       43 1
      92       41       42 1
      93       40       63 1
      94       38       39 1
      95       38       53 1
      96       37       39 1
      97       36       38 1
      98       35       36 1
      99       34       69 1
     100       33       34 1
     101       32       34 1
     102       31       33 1
     103       31       36 1
     104       30       31 1
     105       29       32 1
     106       29       39 1
     107       28       29 1
     108       27       30 1
     109       26       27 1
     110       26       40 1
     111       25       27 1
     112       25       35 1
     113       24       25 1
     114       24       49 1
     115       23       40 1
     116       21       22 1
     117       21       75 1
     118       20       22 1
     119       20       28 1
     120       19       20 1
     121       19       37 1
     122       18       19 1
     123       18       41 1
     124       17       21 1
     125       16       17 1
     126       15       16 1
     127       15       18 1
     128       14       16 1
     129       13       15 1
     130       12       13 1
     131       11       12 1
     132       11       14 1
     133       10       11 1
     134        9       10 1
     135        9       57 1
     136        8       12 1
     137        8       45 1
     138        7        9 1
     139        6        8 1
     140        4        5 1
     141        4       23 1
     142        3        6 1
     143        2        5 1
     144        2        6 1
     145        2        7 1
     146        1        3 1
     147        1        4 1
     148        1       24 1
     149      126      184 1
     150      125      183 1
     151      124      182 1
     152      104      181 1
     153      103      180 1
     154      102      179 1
     155       98      178 1
     156       97      177 1
     157       96      176 1
     158       91      175 1
     159       90      174 1
     160       89      173 1
     161       78      172 1
     162       77      171 1
     163       76      170 1
     164       72      169 1
     165       71      168 1
     166       70      167 1
     167       66      166 1
     168       65      165 1
     169       64      164 1
     170       60      163 1
     171       59      162 1
     172       58      161 1
     173       54      159 1
     174       54      160 1
     175       53      157 1
     176       53      158 1
     177       50      155 1
     178       50      156 1
     179       49      153 1
     180       49      154 1
     181       46      151 1
     182       46      152 1
     183       45      149 1
     184       45      150 1
     185       42      147 1
     186       42      148 1
     187       41      145 1
     188       41      146 1
     189       40      144 1
     190       38      143 1
     191       37      142 1
     192       35      141 1
     193       34      140 1
     194       30      139 1
     195       28      138 1
     196       24      137 1
     197       21      136 1
     198       18      135 1
     199       14      134 1
     200       13      133 1
     201        9      132 1
     202        8      131 1
     203        5      130 1
     204        3      129 1
@<TRIPOS>SUBSTRUCTURE
       1 OCT             1 RESIDUE    0 **** ROOT      0
