@<TRIPOS>MOLECULE
MOL
32 31 1 0 1
SMALL
NO_CHARGES
@<TRIPOS>CRYSIN
   40.3128    40.3128    40.3128    90.0000    90.0000    90.0000  1  1
@<TRIPOS>ATOM
       1 C1          20.5100    20.7600    23.4700 C1            1 MOL     
       2 C2          21.3600    21.9100    22.8500 C2            1 MOL     
       3 C3          22.8000    21.6100    22.5200 C3            1 MOL     
       4 C4          23.6600    21.4100    23.7800 C4            1 MOL     
       5 C5          23.8700    19.9500    24.1600 C5            1 MOL     
       6 C6          24.7000    19.9400    25.4200 C6            1 MOL     
       7 N1          24.0600    19.6900    26.7800 N1            1 MOL     
       8 C7          22.8800    20.6200    27.0800 C7            1 MOL     
       9 C8          25.1000    19.7900    27.8400 C8            1 MOL     
      10 C9          23.4800    18.2900    26.7200 C9            1 MOL     
      11 H1          20.9400    19.8500    23.0400 H1            1 MOL     
      12 H2          20.7600    20.6700    24.5300 H2            1 MOL     
      13 H3          21.3200    22.7400    23.5500 H3            1 MOL     
      14 H4          20.8900    22.1700    21.9000 H4            1 MOL     
      15 H5          23.1800    22.4600    21.9500 H5            1 MOL     
      16 H6          22.9200    20.7900    21.8100 H6            1 MOL     
      17 H7          23.2100    21.9500    24.6100 H7            1 MOL     
      18 H8          24.6600    21.8100    23.6600 H8            1 MOL     
      19 H9          24.3700    19.3900    23.3700 H9            1 MOL     
      20 H10         22.9000    19.4700    24.3300 H10           1 MOL     
      21 H11         25.1700    20.9200    25.5400 H11           1 MOL     
      22 H12         25.4800    19.1700    25.3500 H12           1 MOL     
      23 H13         19.4300    20.8700    23.3400 H13           1 MOL     
      24 H14         23.2200    21.6500    26.9900 H14           1 MOL     
      25 H15         22.0400    20.5700    26.3700 H15           1 MOL     
      26 H16         22.4700    20.3700    28.0600 H16           1 MOL     
      27 H17         24.6200    19.6100    28.8000 H17           1 MOL     
      28 H18         25.8800    19.0600    27.6300 H18           1 MOL     
      29 H19         25.5200    20.7900    27.7300 H19           1 MOL     
      30 H20         24.3200    17.6200    26.5500 H20           1 MOL     
      31 H21         23.1800    18.1400    27.7600 H21           1 MOL     
      32 H22         22.6500    18.1900    26.0200 H22           1 MOL     
@<TRIPOS>BOND
       1        1        2 1
       2        1       11 1
       3        1       12 1
       4        1       23 1
       5        2        3 1
       6        2       13 1
       7        2       14 1
       8        3        4 1
       9        3       15 1
      10        3       16 1
      11        4        5 1
      12        4       17 1
      13        4       18 1
      14        5        6 1
      15        5       19 1
      16        5       20 1
      17        6        7 1
      18        6       21 1
      19        6       22 1
      20        7        8 1
      21        7        9 1
      22        7       10 1
      23        8       26 1
      24        8       24 1
      25        8       25 1
      26        9       27 1
      27        9       28 1
      28        9       29 1
      29       10       30 1
      30       10       31 1
      31       10       32 1
@<TRIPOS>SUBSTRUCTURE
       1 MOL             1 RESIDUE    0 **** ROOT      0
