@<TRIPOS>MOLECULE
MOL
15 15 1 0 1
SMALL
USER_CHARGES
@<TRIPOS>CRYSIN
   40.2731    40.2731    40.2731    90.0000    90.0000    90.0000  1  1
@<TRIPOS>ATOM
       1 C1          22.2394    19.1682    23.5334 ca            1 MOL       -0.117189
       2 C2          22.0739    20.4396    22.9413 ca            1 MOL       -0.194555
       3 C3          22.6551    20.7944    21.7002 ca            1 MOL       -0.008786
       4 C4          23.4344    19.8376    21.0116 ca            1 MOL       -0.194555
       5 C5          23.5473    18.5352    21.5204 ca            1 MOL       -0.117189
       6 C6          22.9109    18.2177    22.8123 ca            1 MOL        0.053861
       7 C7          22.6062    22.1200    21.2358 cg            1 MOL        0.369354
       8 N1          22.5844    23.1779    20.7735 n1            1 MOL       -0.529242
       9 C8          22.9922    16.8059    23.4551 c             1 MOL        0.731312
      10 O1          22.4971    16.5245    24.5384 o             1 MOL       -0.767713
      11 O2          23.5923    15.9744    22.8231 o             1 MOL       -0.767713
      12 H1          21.8742    18.8950    24.5202 ha            1 MOL        0.120492
      13 H2          21.6721    21.1811    23.6271 ha            1 MOL        0.150716
      14 H3          23.8826    20.1661    20.0774 ha            1 MOL        0.150716
      15 H4          24.1647    17.8138    20.9915 ha            1 MOL        0.120492
@<TRIPOS>BOND
       1        9       10 1
       2        9       11 1
       3        7        8 1
       4        6        9 1
       5        5        6 1
       6        4        5 1
       7        3        4 1
       8        3        7 1
       9        2        3 1
      10        1        2 1
      11        1        6 1
      12        5       15 1
      13        4       14 1
      14        2       13 1
      15        1       12 1
@<TRIPOS>SUBSTRUCTURE
       1 MOL             1 RESIDUE    0 **** ROOT      0
