@<TRIPOS>MOLECULE
MOL
15 14 1 0 1
SMALL
USER_CHARGES
@<TRIPOS>CRYSIN
   40.3244    40.3244    40.3244    90.0000    90.0000    90.0000  1  1
@<TRIPOS>ATOM
       1 C1          23.0289    22.8443    21.5494 c1            1 MOL       -0.545663
       2 C2          22.4374    21.8974    21.9592 c1            1 MOL        0.005292
       3 C3          21.8017    20.7730    22.5384 c3            1 MOL        0.010953
       4 C4          22.1603    19.4294    21.9438 c3            1 MOL        0.033456
       5 C5          21.5791    18.3432    22.7910 c3            1 MOL       -0.012067
       6 C6          21.8448    16.9257    22.2422 c             1 MOL        0.852473
       7 O1          22.8165    16.3301    22.6846 o             1 MOL       -0.836026
       8 O2          21.0040    16.4925    21.4671 o             1 MOL       -0.836026
       9 H1          23.5359    23.7096    21.1881 ha            1 MOL        0.303541
      10 H2          22.0677    20.6941    23.5946 hc            1 MOL        0.066766
      11 H3          20.7266    20.9472    22.4593 hc            1 MOL        0.066766
      12 H4          21.8298    19.4328    20.9030 hc            1 MOL        0.003004
      13 H5          23.2449    19.3041    21.9244 hc            1 MOL        0.003004
      14 H6          22.0203    18.4525    23.7839 hc            1 MOL       -0.057736
      15 H7          20.4991    18.4217    22.9325 hc            1 MOL       -0.057736
@<TRIPOS>BOND
       1        6        7 1
       2        6        8 1
       3        5        6 1
       4        4        5 1
       5        3        4 1
       6        2        3 1
       7        1        2 1
       8        5       14 1
       9        5       15 1
      10        4       12 1
      11        4       13 1
      12        3       10 1
      13        3       11 1
      14        1        9 1
@<TRIPOS>SUBSTRUCTURE
       1 MOL             1 RESIDUE    0 **** ROOT      0
