@<TRIPOS>MOLECULE
MOL
30 30 1 0 1
SMALL
NO_CHARGES
@<TRIPOS>CRYSIN
   40.2970    40.2970    40.2970    90.0000    90.0000    90.0000  1  1
@<TRIPOS>ATOM
       1 C1          22.8900    21.7500    21.9100 C1            1 MOL     
       2 C2          23.2400    20.6000    22.5800 C2            1 MOL     
       3 C3          22.3700    19.5400    22.7500 C3            1 MOL     
       4 C4          21.0700    19.6700    22.2100 C4            1 MOL     
       5 C5          20.6800    20.8400    21.5400 C5            1 MOL     
       6 C6          21.5800    21.8600    21.3400 C6            1 MOL     
       7 C7          20.1100    18.4900    22.2500 C7            1 MOL     
       8 C8          20.6900    17.1200    21.7800 C8            1 MOL     
       9 N1          21.2300    16.9400    20.4000 N1            1 MOL     
      10 C9          20.3500    17.5600    19.3600 C9            1 MOL     
      11 C10         21.3700    15.4400    20.1200 C10           1 MOL     
      12 C11         22.6200    17.5600    20.3000 C11           1 MOL     
      13 H1          20.4600    18.6100    19.6600 H1            1 MOL     
      14 H2          19.4200    17.0900    19.6600 H2            1 MOL     
      15 H3          20.7300    17.2500    18.3900 H3            1 MOL     
      16 H4          22.1700    15.1500    20.8000 H4            1 MOL     
      17 H5          21.7400    15.3800    19.1000 H5            1 MOL     
      18 H6          20.4200    14.9100    20.1100 H6            1 MOL     
      19 H7          23.1700    17.2600    21.1800 H7            1 MOL     
      20 H8          23.0600    17.1700    19.3700 H8            1 MOL     
      21 H9          22.6200    18.6500    20.2900 H9            1 MOL     
      22 H10         23.4800    22.6600    21.8500 H10           1 MOL     
      23 H11         24.2400    20.5000    23.0100 H11           1 MOL     
      24 H12         22.6200    18.6700    23.3600 H12           1 MOL     
      25 H13         19.6500    21.0000    21.2400 H13           1 MOL     
      26 H14         21.2500    22.7600    20.8200 H14           1 MOL     
      27 H15         19.6300    18.4100    23.2200 H15           1 MOL     
      28 H16         19.3700    18.6200    21.4600 H16           1 MOL     
      29 H17         21.5200    16.9500    22.4700 H17           1 MOL     
      30 H18         20.0500    16.2500    21.9200 H18           1 MOL     
@<TRIPOS>BOND
       1       30        8 1
       2       21       12 1
       3       26        6 1
       4       24        3 1
       5       25        5 1
       6       22        1 1
       7       29        8 1
       8       19       12 1
       9        1        2 1
      10        1        6 1
      11        5        4 1
      12        5        6 1
      13       12       20 1
      14       12        9 1
      15        4        3 1
      16        4        7 1
      17       23        2 1
      18        3        2 1
      19        8        9 1
      20        8        7 1
      21       15       10 1
      22        9       11 1
      23        9       10 1
      24       27        7 1
      25        7       28 1
      26       14       10 1
      27       11       16 1
      28       11       18 1
      29       11       17 1
      30       13       10 1
@<TRIPOS>SUBSTRUCTURE
       1 MOL             1 RESIDUE    0 **** ROOT      0
