@<TRIPOS>MOLECULE
MOL
16 16 1 0 1
SMALL
USER_CHARGES
@<TRIPOS>CRYSIN
   40.2727    40.2727    40.2727    90.0000    90.0000    90.0000  1  1
@<TRIPOS>ATOM
       1 O1          24.9560    20.0934    23.2430 o             1 MOL       -0.464493
       2 O2          24.0734    21.9333    22.5725 o             1 MOL       -0.464493
       3 N1          24.1557    20.7015    22.5913 no            1 MOL        0.690319
       4 C1          22.9435    20.0140    22.1019 ca            1 MOL        0.016027
       5 C2          22.9944    18.5612    21.9453 ca            1 MOL       -0.117290
       6 C3          21.8246    20.6602    21.7959 ca            1 MOL       -0.190393
       7 C4          21.9097    17.8716    21.4684 ca            1 MOL       -0.046248
       8 C5          20.7399    19.9333    21.2863 ca            1 MOL       -0.197947
       9 C6          20.8735    18.5853    21.0152 ca            1 MOL       -0.081019
      10 C7          21.9717    16.3485    21.2865 c             1 MOL        0.762723
      11 O3          22.9450    15.7500    21.6464 o             1 MOL       -0.759461
      12 O4          21.0964    15.6211    20.8348 o             1 MOL       -0.759461
      13 H1          23.8746    18.0370    22.3088 ha            1 MOL        0.173911
      14 H2          21.7069    21.7313    21.9395 ha            1 MOL        0.157327
      15 H3          19.9323    20.4864    20.8136 ha            1 MOL        0.137525
      16 H4          20.1970    18.0363    20.3651 ha            1 MOL        0.142972
@<TRIPOS>BOND
       1       10       11 1
       2       10       12 1
       3        8        9 1
       4        7        9 1
       5        7       10 1
       6        6        8 1
       7        5        7 1
       8        4        5 1
       9        4        6 1
      10        3        4 1
      11        2        3 1
      12        1        3 1
      13        9       16 1
      14        8       15 1
      15        6       14 1
      16        5       13 1
@<TRIPOS>SUBSTRUCTURE
       1 MOL             1 RESIDUE    0 **** ROOT      0
