@<TRIPOS>MOLECULE
MOL
28 30 1 0 1
SMALL
USER_CHARGES
@<TRIPOS>CRYSIN
   40.3240    40.3240    40.3240    90.0000    90.0000    90.0000  1  1
@<TRIPOS>ATOM
       1 C1          21.2490    21.0394    23.3693 c3            1 MOL       -0.053721
       2 C2          20.8860    21.1484    21.8749 c3            1 MOL        0.057229
       3 C3          22.4383    20.0953    23.4714 c3            1 MOL        0.022218
       4 C4          22.1497    18.6738    22.9192 c3            1 MOL       -0.039208
       5 C5          20.5598    19.7334    21.3435 c3            1 MOL       -0.040902
       6 C6          21.7648    18.7802    21.4315 c3            1 MOL        0.268767
       7 C7          22.8457    19.4848    20.6028 c3            1 MOL       -0.039208
       8 C8          22.1173    21.9074    21.3859 c3            1 MOL       -0.053721
       9 C9          23.6056    20.7463    22.7179 c3            1 MOL       -0.110782
      10 C10         23.2606    20.8825    21.2361 c3            1 MOL        0.022218
      11 C11         21.3781    17.4029    21.0079 c             1 MOL        0.597299
      12 O1          21.8920    16.3822    21.4832 o             1 MOL       -0.750578
      13 O2          20.4706    17.2938    20.2634 o             1 MOL       -0.750578
      14 Br1         25.1332    19.6073    23.1994 br            1 MOL       -0.256637
      15 H1          20.3127    20.7960    23.8758 hc            1 MOL        0.002506
      16 H2          21.5113    21.9584    23.8977 hc            1 MOL        0.002506
      17 H3          19.9308    21.6427    21.6858 hc            1 MOL       -0.030083
      18 H4          22.6985    19.9573    24.5229 hc            1 MOL        0.008109
      19 H5          21.3522    18.2418    23.5274 hc            1 MOL        0.011724
      20 H6          23.0135    18.0086    22.9808 hc            1 MOL        0.011724
      21 H7          20.0256    19.6756    20.3928 hc            1 MOL       -0.013858
      22 H8          19.9252    19.3382    22.1394 hc            1 MOL       -0.013858
      23 H9          23.7620    18.8910    20.5855 hc            1 MOL        0.011724
      24 H10         22.5949    19.5492    19.5419 hc            1 MOL        0.011724
      25 H11         22.3202    22.7210    22.0854 hc            1 MOL        0.002506
      26 H12         21.9057    22.6069    20.5745 hc            1 MOL        0.002506
      27 H13         24.0096    21.7131    23.0287 h1            1 MOL        0.112269
      28 H14         24.0175    21.3877    20.6325 hc            1 MOL        0.008109
@<TRIPOS>BOND
       1       11       12 1
       2       11       13 1
       3        9       10 1
       4        9       14 1
       5        8       10 1
       6        7       10 1
       7        6        7 1
       8        6       11 1
       9        5        6 1
      10        4        6 1
      11        3        4 1
      12        3        9 1
      13        2        5 1
      14        2        8 1
      15        1        2 1
      16        1        3 1
      17       10       28 1
      18        9       27 1
      19        8       25 1
      20        8       26 1
      21        7       23 1
      22        7       24 1
      23        5       21 1
      24        5       22 1
      25        4       19 1
      26        4       20 1
      27        3       18 1
      28        2       17 1
      29        1       15 1
      30        1       16 1
@<TRIPOS>SUBSTRUCTURE
       1 MOL             1 RESIDUE    0 **** ROOT      0
