@<TRIPOS>MOLECULE
MOL
30 30 1 0 1
SMALL
USER_CHARGES
@<TRIPOS>CRYSIN
   40.4076    40.4076    40.4076    90.0000    90.0000    90.0000  1  1
@<TRIPOS>ATOM
       1 C1          21.3952    21.7305    22.8930 ca            1 MOL       -0.101785
       2 C2          22.7627    21.6931    23.0845 ca            1 MOL       -0.160016
       3 C3          23.5392    20.6806    22.5216 ca            1 MOL       -0.121077
       4 C4          22.8900    19.6189    21.8770 ca            1 MOL        0.001469
       5 C5          21.4866    19.6632    21.6945 ca            1 MOL       -0.121077
       6 C6          20.7449    20.7040    22.2233 ca            1 MOL       -0.160016
       7 C7          23.5223    18.3065    21.3937 c3            1 MOL       -0.183884
       8 C8          23.6464    17.3402    22.5966 c3            1 MOL       -0.104383
       9 N1          24.0578    15.8524    22.2766 n4            1 MOL        0.046003
      10 C9          22.8203    15.2052    21.7420 c3            1 MOL       -0.125378
      11 C10         24.4379    15.1474    23.6193 c3            1 MOL       -0.125378
      12 C11         25.0531    15.7307    21.2656 c3            1 MOL       -0.125378
      13 H1          23.0000    14.1549    21.5078 hx            1 MOL        0.113061
      14 H2          22.4714    15.7266    20.8495 hx            1 MOL        0.113061
      15 H3          22.1096    15.2482    22.5686 hx            1 MOL        0.113061
      16 H4          25.3442    15.6935    23.8852 hx            1 MOL        0.113061
      17 H5          24.5272    14.0828    23.3978 hx            1 MOL        0.113061
      18 H6          23.5905    15.2706    24.2954 hx            1 MOL        0.113061
      19 H7          24.8025    16.2049    20.3155 hx            1 MOL        0.113061
      20 H8          25.1504    14.6656    21.0502 hx            1 MOL        0.113061
      21 H9          25.9264    16.2619    21.6469 hx            1 MOL        0.113061
      22 H10         20.8583    22.6008    23.2619 ha            1 MOL        0.156811
      23 H11         23.3340    22.4387    23.6317 ha            1 MOL        0.163661
      24 H12         24.5767    20.6316    22.8423 ha            1 MOL        0.133810
      25 H13         21.0516    18.8671    21.0957 ha            1 MOL        0.133810
      26 H14         19.6773    20.7274    22.0202 ha            1 MOL        0.163661
      27 H15         22.9133    17.7840    20.6530 hc            1 MOL        0.121996
      28 H16         24.4899    18.5767    20.9655 hc            1 MOL        0.121996
      29 H17         24.3995    17.6427    23.3257 hx            1 MOL        0.133801
      30 H18         22.7094    17.2076    23.1395 hx            1 MOL        0.133801
@<TRIPOS>BOND
       1        9       10 1
       2        9       11 1
       3        9       12 1
       4        8        9 1
       5        7        8 1
       6        5        6 1
       7        4        5 1
       8        4        7 1
       9        3        4 1
      10        2        3 1
      11        1        2 1
      12        1        6 1
      13       12       19 1
      14       12       20 1
      15       12       21 1
      16       11       16 1
      17       11       17 1
      18       11       18 1
      19       10       13 1
      20       10       14 1
      21       10       15 1
      22        8       29 1
      23        8       30 1
      24        7       27 1
      25        7       28 1
      26        6       26 1
      27        5       25 1
      28        3       24 1
      29        2       23 1
      30        1       22 1
@<TRIPOS>SUBSTRUCTURE
       1 MOL             1 RESIDUE    0 **** ROOT      0
