@<TRIPOS>MOLECULE
MOL
28 29 1 0 1
SMALL
NO_CHARGES
@<TRIPOS>CRYSIN
   40.3559    40.3559    40.3559    90.0000    90.0000    90.0000  1  1
@<TRIPOS>ATOM
       1 C1          22.2000    20.4400    23.4400 C1            1 MOL     
       2 C2          21.4900    20.5200    22.0800 C2            1 MOL     
       3 C3          22.2300    19.0100    24.0400 C3            1 MOL     
       4 C4          20.7700    18.6000    24.2000 C4            1 MOL     
       5 C5          20.0200    19.9700    22.2300 C5            1 MOL     
       6 C6          20.0300    18.5500    22.8500 C6            1 MOL     
       7 C7          20.7800    17.5900    21.8700 C7            1 MOL     
       8 C8          22.2200    19.5900    21.1100 C8            1 MOL     
       9 C9          23.0000    18.1000    23.0600 C9            1 MOL     
      10 C10         22.2400    18.0900    21.7000 C10           1 MOL     
      11 C11         18.6000    18.1300    23.2100 C11           1 MOL     
      12 O1          18.2100    17.0300    22.8400 O1            1 MOL     
      13 O2          17.8700    18.8100    23.8900 O2            1 MOL     
      14 Br1         23.4000    16.3000    23.6700 Br1           1 MOL     
      15 H1          21.8300    21.2100    24.1200 H1            1 MOL     
      16 H2          23.2200    20.8300    23.4000 H2            1 MOL     
      17 H3          21.5400    21.5300    21.6900 H3            1 MOL     
      18 H4          22.6900    18.9000    25.0300 H4            1 MOL     
      19 H5          20.4000    19.3100    24.9400 H5            1 MOL     
      20 H6          20.7700    17.5900    24.6200 H6            1 MOL     
      21 H7          19.4400    19.9700    21.3100 H7            1 MOL     
      22 H8          19.5100    20.6700    22.8900 H8            1 MOL     
      23 H9          20.7900    16.6200    22.3700 H9            1 MOL     
      24 H10         20.3200    17.5200    20.8800 H10           1 MOL     
      25 H11         23.2600    19.9300    21.0600 H11           1 MOL     
      26 H12         21.7900    19.5600    20.1000 H12           1 MOL     
      27 H13         23.9800    18.5400    22.8900 H13           1 MOL     
      28 H14         22.7600    17.4300    20.9900 H14           1 MOL     
@<TRIPOS>BOND
       1       20        4 1
       2       21        5 1
       3       22        5 1
       4       23        7 1
       5       24        7 1
       6       25        8 1
       7       26        8 1
       8       27        9 1
       9       28       10 1
      10       18        3 1
      11       17        2 1
      12       16        1 1
      13       15        1 1
      14       13       11 1
      15       12       11 1
      16       11        6 1
      17       10        9 1
      18       10        8 1
      19       10        7 1
      20        9        3 1
      21        8        2 1
      22        7        6 1
      23        6        5 1
      24        6        4 1
      25        5        2 1
      26        4        3 1
      27        4       19 1
      28        3        1 1
      29        2        1 1
@<TRIPOS>SUBSTRUCTURE
       1 MOL             1 RESIDUE    0 **** ROOT      0
