@<TRIPOS>MOLECULE
MOL
15 15 1 0 1
SMALL
NO_CHARGES
@<TRIPOS>CRYSIN
   40.3297    40.3297    40.3297    90.0000    90.0000    90.0000  1  1
@<TRIPOS>ATOM
       1 C1          19.9800    19.2500    21.2700 C1            1 MOL     
       2 C2          20.5600    20.4500    21.0200 C2            1 MOL     
       3 C3          21.6700    20.9700    21.7400 C3            1 MOL     
       4 C4          22.2100    20.0600    22.7300 C4            1 MOL     
       5 C5          21.5600    18.8900    23.0400 C5            1 MOL     
       6 C6          20.3800    18.5200    22.4000 C6            1 MOL     
       7 C7          22.3700    22.1600    21.4800 C7            1 MOL     
       8 N1          22.8900    23.0800    21.1400 N1            1 MOL     
       9 C8          19.7700    17.2500    22.7400 C8            1 MOL     
      10 O1          18.8500    16.7600    22.1300 O1            1 MOL     
      11 O2          20.0000    16.6700    23.7800 O2            1 MOL     
      12 H1          19.0700    18.9600    20.7700 H1            1 MOL     
      13 H2          20.2000    21.0200    20.1700 H2            1 MOL     
      14 H3          23.0600    20.3300    23.3600 H3            1 MOL     
      15 H4          22.0400    18.2400    23.7700 H4            1 MOL     
@<TRIPOS>BOND
       1       15        5 1
       2       14        4 1
       3       13        2 1
       4       12        1 1
       5       11        9 1
       6       10        9 1
       7        9        6 1
       8        8        7 1
       9        7        3 1
      10        6        1 1
      11        6        5 1
      12        5        4 1
      13        4        3 1
      14        3        2 1
      15        2        1 1
@<TRIPOS>SUBSTRUCTURE
       1 MOL             1 RESIDUE    0 **** ROOT      0
