@<TRIPOS>MOLECULE
MOL
32 31 1 0 1
SMALL
USER_CHARGES
@<TRIPOS>CRYSIN
   40.3223    40.3223    40.3223    90.0000    90.0000    90.0000  1  1
@<TRIPOS>ATOM
       1 C1          24.2599    27.3803    25.5800 c3            1 MOL       -0.079550
       2 C2          24.6580    25.8776    25.1794 c3            1 MOL        0.033966
       3 C3          23.7806    24.7082    24.4769 c3            1 MOL       -0.020160
       4 C4          23.8853    23.2473    24.1134 c3            1 MOL       -0.045028
       5 C5          22.6952    22.5118    23.4463 c3            1 MOL        0.039138
       6 C6          23.1236    21.2779    22.6665 c3            1 MOL       -0.125052
       7 N1          22.1276    20.2225    22.4574 n4            1 MOL        0.083221
       8 C7          22.0824    19.3504    23.7026 c3            1 MOL       -0.195294
       9 C8          22.6215    19.3466    21.3387 c3            1 MOL       -0.195294
      10 C9          20.8084    20.7659    22.0897 c3            1 MOL       -0.195294
      11 H1          25.0100    28.0698    25.1870 hc            1 MOL        0.024650
      12 H2          23.3290    27.7846    25.1769 hc            1 MOL        0.024650
      13 H3          24.8470    25.5706    26.2102 hc            1 MOL        0.009845
      14 H4          25.5904    25.9699    24.6185 hc            1 MOL        0.009845
      15 H5          23.5526    25.1147    23.4893 hc            1 MOL        0.017110
      16 H6          22.8209    24.6171    24.9898 hc            1 MOL        0.017110
      17 H7          23.9065    22.6499    25.0272 hc            1 MOL        0.025033
      18 H8          24.7414    22.9349    23.5117 hc            1 MOL        0.025033
      19 H9          22.1763    23.2354    22.8141 hc            1 MOL        0.030672
      20 H10         21.9782    22.2568    24.2296 hc            1 MOL        0.030672
      21 H11         23.8740    20.6935    23.2010 hx            1 MOL        0.119237
      22 H12         23.4797    21.5172    21.6634 hx            1 MOL        0.119237
      23 H13         24.1886    27.7144    26.6172 hc            1 MOL        0.024650
      24 H14         23.0405    18.9601    24.0490 hx            1 MOL        0.135734
      25 H15         21.6206    19.9623    24.4789 hx            1 MOL        0.135734
      26 H16         21.4561    18.4872    23.4724 hx            1 MOL        0.135734
      27 H17         23.5644    18.9648    21.7330 hx            1 MOL        0.135734
      28 H18         21.9315    18.5165    21.1807 hx            1 MOL        0.135734
      29 H19         22.7391    19.8571    20.3817 hx            1 MOL        0.135734
      30 H20         20.0847    19.9506    22.0479 hx            1 MOL        0.135734
      31 H21         20.4593    21.3976    22.9078 hx            1 MOL        0.135734
      32 H22         20.9209    21.3806    21.1954 hx            1 MOL        0.135734
@<TRIPOS>BOND
       1        7        8 1
       2        7        9 1
       3        7       10 1
       4        6        7 1
       5        5        6 1
       6        4        5 1
       7        3        4 1
       8        2        3 1
       9        1        2 1
      10       10       30 1
      11       10       31 1
      12       10       32 1
      13        9       27 1
      14        9       28 1
      15        9       29 1
      16        8       24 1
      17        8       25 1
      18        8       26 1
      19        6       21 1
      20        6       22 1
      21        5       19 1
      22        5       20 1
      23        4       17 1
      24        4       18 1
      25        3       15 1
      26        3       16 1
      27        2       13 1
      28        2       14 1
      29        1       11 1
      30        1       12 1
      31        1       23 1
@<TRIPOS>SUBSTRUCTURE
       1 MOL             1 RESIDUE    0 **** ROOT      0
