@<TRIPOS>MOLECULE
MOL
16 16 1 0 1
SMALL
NO_CHARGES
@<TRIPOS>CRYSIN
   40.3354    40.3354    40.3354    90.0000    90.0000    90.0000  1  1
@<TRIPOS>ATOM
       1 O1          21.3200    21.9900    20.9000 O1            1 MOL     
       2 O2          23.2000    22.4300    21.8300 O2            1 MOL     
       3 N1          22.2500    21.6000    21.5700 N1            1 MOL     
       4 C1          22.1100    20.4200    22.4700 C1            1 MOL     
       5 C2          20.8600    19.8900    22.7200 C2            1 MOL     
       6 C3          23.2200    19.9100    23.2100 C3            1 MOL     
       7 C4          20.7400    18.7800    23.6300 C4            1 MOL     
       8 C5          23.1800    18.8400    24.1000 C5            1 MOL     
       9 C6          21.8700    18.2500    24.2900 C6            1 MOL     
      10 C7          19.4100    18.1000    23.7600 C7            1 MOL     
      11 O3          18.3700    18.6000    23.3900 O3            1 MOL     
      12 O4          19.3200    17.0600    24.4300 O4            1 MOL     
      13 H1          19.9900    20.3300    22.2600 H1            1 MOL     
      14 H2          24.1900    20.3700    23.0400 H2            1 MOL     
      15 H3          24.0800    18.4600    24.5700 H3            1 MOL     
      16 H4          21.8200    17.3100    24.8300 H4            1 MOL     
@<TRIPOS>BOND
       1        1        3 1
       2        2        3 1
       3        3        4 1
       4        4        6 1
       5        4        5 1
       6        5        7 1
       7        5       13 1
       8        6        8 1
       9        6       14 1
      10        7        9 1
      11        7       10 1
      12        8        9 1
      13        8       15 1
      14        9       16 1
      15       10       11 1
      16       10       12 1
@<TRIPOS>SUBSTRUCTURE
       1 MOL             1 RESIDUE    0 **** ROOT      0
