@<TRIPOS>MOLECULE
MOL
15 14 1 0 1
SMALL
NO_CHARGES
@<TRIPOS>CRYSIN
   40.3326    40.3326    40.3326    90.0000    90.0000    90.0000  1  1
@<TRIPOS>ATOM
       1 C1          22.6900    22.8200    21.3100 C1            1 MOL     
       2 C2          22.5400    21.6500    21.2100 C2            1 MOL     
       3 C3          22.2800    20.2100    21.1300 C3            1 MOL     
       4 C4          20.7300    19.9400    21.1200 C4            1 MOL     
       5 C5          20.3000    18.4800    20.9400 C5            1 MOL     
       6 C6          20.7700    17.5700    22.0900 C6            1 MOL     
       7 O1          21.5300    16.6300    21.8800 O1            1 MOL     
       8 O2          20.3700    17.8200    23.2500 O2            1 MOL     
       9 H1          22.7800    23.8800    21.4600 H1            1 MOL     
      10 H2          22.7100    19.8400    20.2000 H2            1 MOL     
      11 H3          22.8100    19.7400    21.9600 H3            1 MOL     
      12 H4          20.3600    20.3000    22.0800 H4            1 MOL     
      13 H5          20.2800    20.4500    20.2600 H5            1 MOL     
      14 H6          19.2200    18.4000    20.8900 H6            1 MOL     
      15 H7          20.8000    18.2100    20.0000 H7            1 MOL     
@<TRIPOS>BOND
       1       10        3 1
       2       13        4 1
       3       12        4 1
       4       11        3 1
       5       14        5 1
       6       15        5 1
       7        2        1 1
       8        2        3 1
       9        1        9 1
      10        5        4 1
      11        5        6 1
      12        4        3 1
      13        6        8 1
      14        6        7 1
@<TRIPOS>SUBSTRUCTURE
       1 MOL             1 RESIDUE    0 **** ROOT      0
